CCCC/C=C/C=C/C=C/C=N/N
     RDKit          3D

 13 12  0  0  0  0  0  0  0  0999 V2000
   -4.1263   -2.6233   -1.3203 C   0  0  0  0  0  0  0  0  0  0  0  0
   -3.1913   -1.8599   -2.1954 C   0  0  0  0  0  0  0  0  0  0  0  0
   -3.3678   -0.3638   -2.1207 C   0  0  0  0  0  0  0  0  0  0  0  0
   -3.1553    0.1927   -0.7526 C   0  0  0  0  0  0  0  0  0  0  0  0
   -1.7650   -0.1176   -0.2998 C   0  0  0  0  0  0  0  0  0  0  0  0
   -0.9017    0.8597    0.0101 C   0  0  0  0  0  0  0  0  0  0  0  0
    0.4402    0.5396    0.4467 C   0  0  0  0  0  0  0  0  0  0  0  0
    1.2624    1.5360    0.7433 C   0  0  0  0  0  0  0  0  0  0  0  0
    2.6085    1.2485    1.1821 C   0  0  0  0  0  0  0  0  0  0  0  0
    3.4422    2.2285    1.4823 C   0  0  0  0  0  0  0  0  0  0  0  0
    4.8047    1.9901    1.9277 C   0  0  0  0  0  0  0  0  0  0  0  0
    5.2674    0.8014    2.0517 N   0  0  0  0  0  0  0  0  0  0  0  0
    6.5722    0.5269    2.4771 N   0  0  0  0  0  0  0  0  0  0  0  0
  1  2  1  0
  2  3  1  0
  3  4  1  0
  4  5  1  0
  5  6  2  0
  6  7  1  0
  7  8  2  0
  8  9  1  0
  9 10  2  0
 10 11  1  0
 11 12  2  0
 12 13  1  0
M  END

