COC1=CC(=CC(=C1)OC2=C(C(=O)C3=CC=CC=C3C2=O)Br)OC
     RDKit          3D

 24 26  0  0  0  0  0  0  0  0999 V2000
   -1.7300    3.2095    0.6052 C   0  0  0  0  0  0  0  0  0  0  0  0
   -2.9130    2.4462    0.4959 O   0  0  0  0  0  0  0  0  0  0  0  0
   -2.7803    1.0967    0.1671 C   0  0  0  0  0  0  0  0  0  0  0  0
   -3.9490    0.3724    0.0663 C   0  0  0  0  0  0  0  0  0  0  0  0
   -3.8932   -0.9688   -0.2558 C   0  0  0  0  0  0  0  0  0  0  0  0
   -2.6502   -1.5473   -0.4691 C   0  0  0  0  0  0  0  0  0  0  0  0
   -1.4774   -0.8344   -0.3712 C   0  0  0  0  0  0  0  0  0  0  0  0
   -1.5524    0.5028   -0.0488 C   0  0  0  0  0  0  0  0  0  0  0  0
   -0.2581   -1.4056   -0.5813 O   0  0  0  0  0  0  0  0  0  0  0  0
    0.9561   -0.7919   -0.5094 C   0  0  0  0  0  0  0  0  0  0  0  0
    1.3689    0.0064   -1.5016 C   0  0  0  0  0  0  0  0  0  0  0  0
    2.6546    0.6819   -1.4695 C   0  0  0  0  0  0  0  0  0  0  0  0
    2.9829    1.4258   -2.4465 O   0  0  0  0  0  0  0  0  0  0  0  0
    3.5209    0.4806   -0.3161 C   0  0  0  0  0  0  0  0  0  0  0  0
    4.7486    1.1178   -0.2719 C   0  0  0  0  0  0  0  0  0  0  0  0
    5.5436    0.9161    0.8157 C   0  0  0  0  0  0  0  0  0  0  0  0
    5.1632    0.1046    1.8609 C   0  0  0  0  0  0  0  0  0  0  0  0
    3.9331   -0.5258    1.8028 C   0  0  0  0  0  0  0  0  0  0  0  0
    3.1010   -0.3475    0.7209 C   0  0  0  0  0  0  0  0  0  0  0  0
    1.8061   -1.0153    0.6671 C   0  0  0  0  0  0  0  0  0  0  0  0
    1.4714   -1.7507    1.6234 O   0  0  0  0  0  0  0  0  0  0  0  0
    0.2049    0.2359   -2.9808 Br  0  0  0  0  0  0  0  0  0  0  0  0
   -5.0811   -1.6833   -0.3532 O   0  0  0  0  0  0  0  0  0  0  0  0
   -4.9798   -3.0549   -0.6853 C   0  0  0  0  0  0  0  0  0  0  0  0
  1  2  1  0
  2  3  1  0
  3  4  2  0
  4  5  1  0
  5  6  2  0
  6  7  1  0
  7  8  2  0
  7  9  1  0
  9 10  1  0
 10 11  2  0
 11 12  1  0
 12 13  2  0
 12 14  1  0
 14 15  2  0
 15 16  1  0
 16 17  2  0
 17 18  1  0
 18 19  2  0
 19 20  1  0
 20 21  2  0
 11 22  1  0
  5 23  1  0
 23 24  1  0
  8  3  1  0
 20 10  1  0
 19 14  1  0
M  END

