CC(=CCSC1=NN=C(N1C2=CC=CC=C2)C3=CC=CC=C3)C
     RDKit          3D

 23 25  0  0  0  0  0  0  0  0999 V2000
    5.0745   -1.2091    0.3715 C   0  0  0  0  0  0  0  0  0  0  0  0
    5.0908    0.2559    0.3618 C   0  0  0  0  0  0  0  0  0  0  0  0
    4.3516    1.1048   -0.2715 C   0  0  0  0  0  0  0  0  0  0  0  0
    3.2748    0.8003   -1.1894 C   0  0  0  0  0  0  0  0  0  0  0  0
    1.6254    1.3259   -0.7851 S   0  0  0  0  0  0  0  0  0  0  0  0
    0.5474   -0.0565   -0.5045 C   0  0  0  0  0  0  0  0  0  0  0  0
    0.8769   -1.3748   -0.5831 N   0  0  0  0  0  0  0  0  0  0  0  0
   -0.2132   -2.0884   -0.4151 N   0  0  0  0  0  0  0  0  0  0  0  0
   -1.2820   -1.2543   -0.2242 C   0  0  0  0  0  0  0  0  0  0  0  0
   -0.7913   -0.0311   -0.2796 N   0  0  0  0  0  0  0  0  0  0  0  0
   -1.5266    1.1756   -0.0842 C   0  0  0  0  0  0  0  0  0  0  0  0
   -1.9847    1.9090   -1.1280 C   0  0  0  0  0  0  0  0  0  0  0  0
   -2.6857    3.0600   -0.9290 C   0  0  0  0  0  0  0  0  0  0  0  0
   -2.9562    3.5206    0.3586 C   0  0  0  0  0  0  0  0  0  0  0  0
   -2.4958    2.7746    1.4238 C   0  0  0  0  0  0  0  0  0  0  0  0
   -1.7923    1.6232    1.2054 C   0  0  0  0  0  0  0  0  0  0  0  0
   -2.6407   -1.7616   -0.0556 C   0  0  0  0  0  0  0  0  0  0  0  0
   -2.8174   -3.1540   -0.0355 C   0  0  0  0  0  0  0  0  0  0  0  0
   -4.0442   -3.7598    0.0853 C   0  0  0  0  0  0  0  0  0  0  0  0
   -5.1764   -2.9856    0.1952 C   0  0  0  0  0  0  0  0  0  0  0  0
   -5.0121   -1.6261    0.1784 C   0  0  0  0  0  0  0  0  0  0  0  0
   -3.7589   -1.0065    0.0529 C   0  0  0  0  0  0  0  0  0  0  0  0
    6.2459    0.8720    1.1705 C   0  0  0  0  0  0  0  0  0  0  0  0
  1  2  1  0
  2  3  2  3
  3  4  1  0
  4  5  1  0
  5  6  1  0
  6  7  2  0
  7  8  1  0
  8  9  2  0
  9 10  1  0
 10 11  1  0
 11 12  2  0
 12 13  1  0
 13 14  2  0
 14 15  1  0
 15 16  2  0
  9 17  1  0
 17 18  2  0
 18 19  1  0
 19 20  2  0
 20 21  1  0
 21 22  2  0
  2 23  1  0
 10  6  1  0
 16 11  1  0
 22 17  1  0
M  END

