CCC1(O)CC(C=C1)C1(CN)CO1
     RDKit          3D

 13 14  0  0  0  0  0  0  0  0999 V2000
   -3.8555   -0.3527    0.0213 C   0  0  0  0  0  0  0  0  0  0  0  0
   -2.6520    0.1686    0.7331 C   0  0  0  0  0  0  0  0  0  0  0  0
   -1.6258    0.5894   -0.2709 C   0  0  0  0  0  0  0  0  0  0  0  0
   -2.0671    1.5866   -1.1289 O   0  0  0  0  0  0  0  0  0  0  0  0
   -0.3211    1.0130    0.4230 C   0  0  0  0  0  0  0  0  0  0  0  0
    0.4318   -0.2513    0.4821 C   0  0  0  0  0  0  0  0  0  0  0  0
   -0.0172   -1.0310   -0.6944 C   0  0  0  0  0  0  0  0  0  0  0  0
   -1.1738   -0.5482   -1.1062 C   0  0  0  0  0  0  0  0  0  0  0  0
    1.9143   -0.1411    0.4146 C   0  0  0  0  0  0  0  0  0  0  0  0
    2.6135    0.4718   -0.7512 C   0  0  0  0  0  0  0  0  0  0  0  0
    3.9822   -0.0363   -0.7613 N   0  0  0  0  0  0  0  0  0  0  0  0
    2.6701   -1.1173    1.2895 C   0  0  0  0  0  0  0  0  0  0  0  0
    2.5968    0.2233    1.6633 O   0  0  0  0  0  0  0  0  0  0  0  0
  1  2  1  0
  2  3  1  0
  3  4  1  0
  3  5  1  0
  5  6  1  0
  6  7  1  0
  7  8  2  0
  6  9  1  0
  9 10  1  0
 10 11  1  0
  9 12  1  0
 12 13  1  0
  8  3  1  0
 13  9  1  0
M  END

