CN(C)CCSC1=NNC(=N1)C2=CC=CC=C2O
     RDKit          3D

 18 19  0  0  0  0  0  0  0  0999 V2000
    3.6619    1.1084   -1.3844 C   0  0  0  0  0  0  0  0  0  0  0  0
    4.1748   -0.1460   -0.8615 N   0  0  0  0  0  0  0  0  0  0  0  0
    5.4174    0.0545   -0.1391 C   0  0  0  0  0  0  0  0  0  0  0  0
    3.2248   -0.8528   -0.0704 C   0  0  0  0  0  0  0  0  0  0  0  0
    2.8788   -0.2059    1.2434 C   0  0  0  0  0  0  0  0  0  0  0  0
    1.6524   -1.3165    2.0366 S   0  0  0  0  0  0  0  0  0  0  0  0
    0.1398   -1.2731    1.0675 C   0  0  0  0  0  0  0  0  0  0  0  0
   -0.2195   -2.0358    0.0276 N   0  0  0  0  0  0  0  0  0  0  0  0
   -1.4384   -1.6750   -0.4033 N   0  0  0  0  0  0  0  0  0  0  0  0
   -1.8726   -0.6781    0.3559 C   0  0  0  0  0  0  0  0  0  0  0  0
   -0.9034   -0.4202    1.2700 N   0  0  0  0  0  0  0  0  0  0  0  0
   -3.1561    0.0107    0.2372 C   0  0  0  0  0  0  0  0  0  0  0  0
   -3.4440    1.0367    1.1184 C   0  0  0  0  0  0  0  0  0  0  0  0
   -4.6188    1.7290    1.0892 C   0  0  0  0  0  0  0  0  0  0  0  0
   -5.5632    1.3854    0.1321 C   0  0  0  0  0  0  0  0  0  0  0  0
   -5.3092    0.3723   -0.7573 C   0  0  0  0  0  0  0  0  0  0  0  0
   -4.1049   -0.3111   -0.7007 C   0  0  0  0  0  0  0  0  0  0  0  0
   -3.8959   -1.3126   -1.6109 O   0  0  0  0  0  0  0  0  0  0  0  0
  1  2  1  0
  2  3  1  0
  2  4  1  0
  4  5  1  0
  5  6  1  0
  6  7  1  0
  7  8  2  0
  8  9  1  0
  9 10  1  0
 10 11  2  0
 10 12  1  0
 12 13  2  0
 13 14  1  0
 14 15  2  0
 15 16  1  0
 16 17  2  0
 17 18  1  0
 11  7  1  0
 17 12  1  0
M  END

