C1=CC=C(C=C1)S(=O)(=O)N/N=C/C2=[N+](N=CC=C2)[O-]
     RDKit          3D

 19 20  0  0  0  0  0  0  0  0999 V2000
    4.7962   -0.8278   -1.1813 C   0  0  0  0  0  0  0  0  0  0  0  0
    3.6535   -1.5922   -1.1345 C   0  0  0  0  0  0  0  0  0  0  0  0
    2.6144   -1.2937   -0.2753 C   0  0  0  0  0  0  0  0  0  0  0  0
    2.6849   -0.2054    0.5775 C   0  0  0  0  0  0  0  0  0  0  0  0
    3.8440    0.5517    0.5150 C   0  0  0  0  0  0  0  0  0  0  0  0
    4.8838    0.2571   -0.3414 C   0  0  0  0  0  0  0  0  0  0  0  0
    1.4023    0.2146    1.6804 S   0  0  0  0  0  6  0  0  0  0  0  0
    2.0225    0.8709    2.9043 O   0  0  0  0  0  0  0  0  0  0  0  0
    0.6820   -1.0494    2.0774 O   0  0  0  0  0  0  0  0  0  0  0  0
    0.2604    1.2912    0.9766 N   0  0  0  0  0  0  0  0  0  0  0  0
   -0.8479    0.8163    0.2992 N   0  0  0  0  0  0  0  0  0  0  0  0
   -2.0090    1.0150    0.7995 C   0  0  0  0  0  0  0  0  0  0  0  0
   -3.1835    0.5054    0.0705 C   0  0  0  0  0  0  0  0  0  0  0  0
   -4.4202    0.6953    0.5656 N   0  0  0  0  0  4  0  0  0  0  0  0
   -5.4882    0.2451   -0.0743 N   0  0  0  0  0  0  0  0  0  0  0  0
   -5.4246   -0.4216   -1.2416 C   0  0  0  0  0  0  0  0  0  0  0  0
   -4.1733   -0.6364   -1.7819 C   0  0  0  0  0  0  0  0  0  0  0  0
   -3.0519   -0.1700   -1.1209 C   0  0  0  0  0  0  0  0  0  0  0  0
   -4.5149    1.3756    1.7606 O   0  0  0  0  0  1  0  0  0  0  0  0
  1  2  2  0
  2  3  1  0
  3  4  2  0
  4  5  1  0
  5  6  2  0
  4  7  1  0
  7  8  2  0
  7  9  2  0
  7 10  1  0
 10 11  1  0
 11 12  2  0
 12 13  1  0
 13 14  2  0
 14 15  1  0
 15 16  2  0
 16 17  1  0
 17 18  2  0
 14 19  1  0
  6  1  1  0
 18 13  1  0
M  CHG  2  14   1  19  -1
M  END

