C1=C(C(=O)N=C2C1=NN=C2)C(=O)O
     RDKit          3D

 13 14  0  0  0  0  0  0  0  0999 V2000
    0.1245   -0.7996    0.8404 C   0  0  0  0  0  0  0  0  0  0  0  0
    0.8892    0.2451    0.5789 C   0  0  0  0  0  0  0  0  0  0  0  0
    0.4635    1.1338   -0.4922 C   0  0  0  0  0  0  0  0  0  0  0  0
    1.2065    2.1336   -0.7336 O   0  0  0  0  0  0  0  0  0  0  0  0
   -0.7419    0.9035   -1.2522 N   0  0  0  0  0  0  0  0  0  0  0  0
   -1.4898   -0.1014   -1.0105 C   0  0  0  0  0  0  0  0  0  0  0  0
   -1.1035   -1.0204    0.0547 C   0  0  0  0  0  0  0  0  0  0  0  0
   -2.0302   -1.9181    0.0668 N   0  0  0  0  0  0  0  0  0  0  0  0
   -3.0043   -1.6724   -0.9048 N   0  0  0  0  0  0  0  0  0  0  0  0
   -2.7347   -0.6060   -1.5746 C   0  0  0  0  0  0  0  0  0  0  0  0
    2.1227    0.5124    1.3306 C   0  0  0  0  0  0  0  0  0  0  0  0
    2.5068   -0.2441    2.2596 O   0  0  0  0  0  0  0  0  0  0  0  0
    2.9226    1.6074    1.0554 O   0  0  0  0  0  0  0  0  0  0  0  0
  1  2  2  0
  2  3  1  0
  3  4  2  0
  3  5  1  0
  5  6  2  0
  6  7  1  0
  7  8  2  0
  8  9  1  0
  9 10  2  0
  2 11  1  0
 11 12  2  0
 11 13  1  0
  7  1  1  0
 10  6  1  0
M  END

