C(CNC(=O)[O-])[NH2+]CCNC(=O)[O-]
     RDKit          3D

 13 12  0  0  0  0  0  0  0  0999 V2000
    0.8251   -1.2184    0.3047 C   0  0  0  0  0  0  0  0  0  0  0  0
    1.8691   -0.8327   -0.7373 C   0  0  0  0  0  0  0  0  0  0  0  0
    3.0934   -0.3732   -0.1510 N   0  0  0  0  0  0  0  0  0  0  0  0
    3.1344    0.7625    0.6971 C   0  0  0  0  0  0  0  0  0  0  0  0
    2.0879    1.3903    0.9500 O   0  0  0  0  0  0  0  0  0  0  0  0
    4.3074    1.2233    1.2748 O   0  0  0  0  0  1  0  0  0  0  0  0
   -0.3826   -1.6720   -0.3096 N   0  0  0  0  0  4  0  0  0  0  0  0
   -1.5523   -0.9205    0.0800 C   0  0  0  0  0  0  0  0  0  0  0  0
   -1.4086    0.5516   -0.0898 C   0  0  0  0  0  0  0  0  0  0  0  0
   -2.6471    1.1762    0.3360 N   0  0  0  0  0  0  0  0  0  0  0  0
   -2.7428    2.6057    0.2614 C   0  0  0  0  0  0  0  0  0  0  0  0
   -1.7877    3.3103   -0.1593 O   0  0  0  0  0  0  0  0  0  0  0  0
   -3.8918    3.2714    0.6497 O   0  0  0  0  0  1  0  0  0  0  0  0
  1  2  1  0
  2  3  1  0
  3  4  1  0
  4  5  2  0
  4  6  1  0
  1  7  1  0
  7  8  1  0
  8  9  1  0
  9 10  1  0
 10 11  1  0
 11 12  2  0
 11 13  1  0
M  CHG  3   6  -1   7   1  13  -1
M  END

