C1=CC(=C(C=C1O)O)C2=NC(=NN2)SCC(=O)O
     RDKit          3D

 18 19  0  0  0  0  0  0  0  0999 V2000
   -3.4054    1.0940   -0.5483 C   0  0  0  0  0  0  0  0  0  0  0  0
   -2.0997    0.9945   -0.1095 C   0  0  0  0  0  0  0  0  0  0  0  0
   -1.5257   -0.2321    0.2559 C   0  0  0  0  0  0  0  0  0  0  0  0
   -2.2917   -1.3699    0.1730 C   0  0  0  0  0  0  0  0  0  0  0  0
   -3.6071   -1.2542   -0.2715 C   0  0  0  0  0  0  0  0  0  0  0  0
   -4.1860   -0.0607   -0.6336 C   0  0  0  0  0  0  0  0  0  0  0  0
   -5.5107    0.0064   -1.0748 O   0  0  0  0  0  0  0  0  0  0  0  0
   -1.7883   -2.6142    0.5188 O   0  0  0  0  0  0  0  0  0  0  0  0
   -0.1318   -0.2567    0.7048 C   0  0  0  0  0  0  0  0  0  0  0  0
    0.6736    0.8330    0.7836 N   0  0  0  0  0  0  0  0  0  0  0  0
    1.8944    0.5132    1.2155 C   0  0  0  0  0  0  0  0  0  0  0  0
    1.8612   -0.8104    1.4154 N   0  0  0  0  0  0  0  0  0  0  0  0
    0.6368   -1.2710    1.1062 N   0  0  0  0  0  0  0  0  0  0  0  0
    3.2313    1.6835    1.4390 S   0  0  0  0  0  0  0  0  0  0  0  0
    4.1368    1.7892   -0.1430 C   0  0  0  0  0  0  0  0  0  0  0  0
    4.7981    0.4924   -0.4462 C   0  0  0  0  0  0  0  0  0  0  0  0
    4.1602   -0.4075   -1.0539 O   0  0  0  0  0  0  0  0  0  0  0  0
    6.1031    0.2791   -0.0635 O   0  0  0  0  0  0  0  0  0  0  0  0
  1  2  2  0
  2  3  1  0
  3  4  2  0
  4  5  1  0
  5  6  2  0
  6  7  1  0
  4  8  1  0
  3  9  1  0
  9 10  2  0
 10 11  1  0
 11 12  2  0
 12 13  1  0
 11 14  1  0
 14 15  1  0
 15 16  1  0
 16 17  2  0
 16 18  1  0
  6  1  1  0
 13  9  1  0
M  END

