COC1=CC(=NC=C1)CCBr
     RDKit          3D

 11 11  0  0  0  0  0  0  0  0999 V2000
   -2.8868    0.3959    1.2140 C   0  0  0  0  0  0  0  0  0  0  0  0
   -2.6590   -0.0397   -0.0845 O   0  0  0  0  0  0  0  0  0  0  0  0
   -1.4119   -0.2273   -0.6596 C   0  0  0  0  0  0  0  0  0  0  0  0
   -0.2218   -0.0009   -0.0022 C   0  0  0  0  0  0  0  0  0  0  0  0
    1.0095   -0.1903   -0.5826 C   0  0  0  0  0  0  0  0  0  0  0  0
    1.0424   -0.6197   -1.8602 N   0  0  0  0  0  0  0  0  0  0  0  0
   -0.0669   -0.8630   -2.5690 C   0  0  0  0  0  0  0  0  0  0  0  0
   -1.3124   -0.6653   -1.9639 C   0  0  0  0  0  0  0  0  0  0  0  0
    2.2970    0.0343    0.0679 C   0  0  0  0  0  0  0  0  0  0  0  0
    2.2493    0.5060    1.4727 C   0  0  0  0  0  0  0  0  0  0  0  0
    4.0985    0.7160    2.0720 Br  0  0  0  0  0  0  0  0  0  0  0  0
  1  2  1  0
  2  3  1  0
  3  4  2  0
  4  5  1  0
  5  6  2  0
  6  7  1  0
  7  8  2  0
  5  9  1  0
  9 10  1  0
 10 11  1  0
  8  3  1  0
M  END

