CC(=O)ONC(=O)C=NN=C
     RDKit          3D

 11 10  0  0  0  0  0  0  0  0999 V2000
   -3.9055    0.4320    0.5065 C   0  0  0  0  0  0  0  0  0  0  0  0
   -2.8141    0.1742   -0.4550 C   0  0  0  0  0  0  0  0  0  0  0  0
   -3.0886    0.0139   -1.6613 O   0  0  0  0  0  0  0  0  0  0  0  0
   -1.5211    0.1107   -0.0333 O   0  0  0  0  0  0  0  0  0  0  0  0
   -0.4418   -0.1233   -0.8435 N   0  0  0  0  0  0  0  0  0  0  0  0
    0.8333   -0.2704   -0.2399 C   0  0  0  0  0  0  0  0  0  0  0  0
    0.9738   -0.1849    1.0285 O   0  0  0  0  0  0  0  0  0  0  0  0
    1.9838   -0.5217   -1.0832 C   0  0  0  0  0  0  0  0  0  0  0  0
    3.1360   -0.6565   -0.5398 N   0  0  0  0  0  0  0  0  0  0  0  0
    3.2589   -0.5594    0.8410 N   0  0  0  0  0  0  0  0  0  0  0  0
    4.0771    0.2901    1.3251 C   0  0  0  0  0  0  0  0  0  0  0  0
  1  2  1  0
  2  3  2  0
  2  4  1  0
  4  5  1  0
  5  6  1  0
  6  7  2  0
  6  8  1  0
  8  9  2  3
  9 10  1  0
 10 11  2  0
M  END

