CC(O)C(C)OC(=O)CN(C)C
     RDKit          3D

 12 11  0  0  0  0  0  0  0  0999 V2000
   -1.9728    1.5023   -1.7429 C   0  0  0  0  0  0  0  0  0  0  0  0
   -2.7712    0.7701   -0.6935 C   0  0  0  0  0  0  0  0  0  0  0  0
   -3.0836    1.6935    0.3024 O   0  0  0  0  0  0  0  0  0  0  0  0
   -2.0490   -0.4245   -0.1341 C   0  0  0  0  0  0  0  0  0  0  0  0
   -3.0231   -1.1643    0.7581 C   0  0  0  0  0  0  0  0  0  0  0  0
   -0.8419   -0.1065    0.4954 O   0  0  0  0  0  0  0  0  0  0  0  0
    0.3948   -0.5602    0.1572 C   0  0  0  0  0  0  0  0  0  0  0  0
    0.5209   -1.3447   -0.8076 O   0  0  0  0  0  0  0  0  0  0  0  0
    1.6017   -0.1595    0.8899 C   0  0  0  0  0  0  0  0  0  0  0  0
    2.8188   -0.7102    0.3877 N   0  0  0  0  0  0  0  0  0  0  0  0
    3.1872   -0.1868   -0.9267 C   0  0  0  0  0  0  0  0  0  0  0  0
    3.9428   -0.4224    1.2539 C   0  0  0  0  0  0  0  0  0  0  0  0
  1  2  1  0
  2  3  1  0
  2  4  1  0
  4  5  1  0
  4  6  1  0
  6  7  1  0
  7  8  2  0
  7  9  1  0
  9 10  1  0
 10 11  1  0
 10 12  1  0
M  END

