C1=C(ON=C1C(F)(F)F)C(=O)CBr
     RDKit          3D

 13 13  0  0  0  0  0  0  0  0999 V2000
    0.3740   -0.2068    0.0464 C   0  0  0  0  0  0  0  0  0  0  0  0
   -0.7035    0.2878    0.7631 C   0  0  0  0  0  0  0  0  0  0  0  0
   -0.1266    0.9834    1.7974 O   0  0  0  0  0  0  0  0  0  0  0  0
    1.1486    0.9148    1.6999 N   0  0  0  0  0  0  0  0  0  0  0  0
    1.5240    0.1790    0.6278 C   0  0  0  0  0  0  0  0  0  0  0  0
    2.9359   -0.1149    0.2196 C   0  0  0  0  0  0  0  0  0  0  0  0
    3.4506    1.1119   -0.1046 F   0  0  0  0  0  0  0  0  0  0  0  0
    3.6982   -0.5678    1.3004 F   0  0  0  0  0  0  0  0  0  0  0  0
    2.9996   -0.9684   -0.8012 F   0  0  0  0  0  0  0  0  0  0  0  0
   -2.1083    0.1921    0.5551 C   0  0  0  0  0  0  0  0  0  0  0  0
   -2.9095    0.6009    1.4277 O   0  0  0  0  0  0  0  0  0  0  0  0
   -2.6548   -0.4093   -0.7165 C   0  0  0  0  0  0  0  0  0  0  0  0
   -1.6749    0.4072   -2.2176 Br  0  0  0  0  0  0  0  0  0  0  0  0
  1  2  2  0
  2  3  1  0
  3  4  1  0
  4  5  2  0
  5  6  1  0
  6  7  1  0
  6  8  1  0
  6  9  1  0
  2 10  1  0
 10 11  2  0
 10 12  1  0
 12 13  1  0
  5  1  1  0
M  END

