CC(=O)C1=CN=C(N=C1N)OC
     RDKit          3D

 12 12  0  0  0  0  0  0  0  0999 V2000
   -2.5861   -1.9416    0.5130 C   0  0  0  0  0  0  0  0  0  0  0  0
   -2.2658   -0.5016    0.3683 C   0  0  0  0  0  0  0  0  0  0  0  0
   -3.2297    0.3010    0.3819 O   0  0  0  0  0  0  0  0  0  0  0  0
   -0.9012   -0.0619    0.2196 C   0  0  0  0  0  0  0  0  0  0  0  0
    0.1276   -0.9807    0.2102 C   0  0  0  0  0  0  0  0  0  0  0  0
    1.3842   -0.5338    0.0698 N   0  0  0  0  0  0  0  0  0  0  0  0
    1.6501    0.7831   -0.0603 C   0  0  0  0  0  0  0  0  0  0  0  0
    0.6440    1.6842   -0.0513 N   0  0  0  0  0  0  0  0  0  0  0  0
   -0.6310    1.3013    0.0853 C   0  0  0  0  0  0  0  0  0  0  0  0
   -1.7171    2.2378    0.0980 N   0  0  0  0  0  0  0  0  0  0  0  0
    2.9544    1.1897   -0.2013 O   0  0  0  0  0  0  0  0  0  0  0  0
    4.0179    0.2665   -0.2132 C   0  0  0  0  0  0  0  0  0  0  0  0
  1  2  1  0
  2  3  2  0
  2  4  1  0
  4  5  2  0
  5  6  1  0
  6  7  2  0
  7  8  1  0
  8  9  2  0
  9 10  1  0
  7 11  1  0
 11 12  1  0
  9  4  1  0
M  END

