CC(O)C#CCC(O)COC=O
     RDKit          3D

 12 11  0  0  0  0  0  0  0  0999 V2000
    4.4261    0.4305   -0.1059 C   0  0  0  0  0  0  0  0  0  0  0  0
    3.4275   -0.6801    0.1776 C   0  0  0  0  0  0  0  0  0  0  0  0
    3.4092   -1.5685   -0.8969 O   0  0  0  0  0  0  0  0  0  0  0  0
    2.0853   -0.1256    0.3632 C   0  0  0  0  0  0  0  0  0  0  0  0
    0.9749    0.3174    0.5307 C   0  0  0  0  0  0  0  0  0  0  0  0
   -0.3709    0.8482    0.7231 C   0  0  0  0  0  0  0  0  0  0  0  0
   -1.3348   -0.0816    0.0148 C   0  0  0  0  0  0  0  0  0  0  0  0
   -1.1958   -1.3418    0.5950 O   0  0  0  0  0  0  0  0  0  0  0  0
   -2.7411    0.3908    0.3036 C   0  0  0  0  0  0  0  0  0  0  0  0
   -3.7046   -0.4931   -0.2393 O   0  0  0  0  0  0  0  0  0  0  0  0
   -5.0417   -0.1698   -0.0421 C   0  0  0  0  0  0  0  0  0  0  0  0
   -5.3632    0.8698    0.5953 O   0  0  0  0  0  0  0  0  0  0  0  0
  1  2  1  0
  2  3  1  0
  2  4  1  0
  4  5  3  0
  5  6  1  0
  6  7  1  0
  7  8  1  0
  7  9  1  0
  9 10  1  0
 10 11  1  0
 11 12  2  0
M  END

