CN(CC1COC=NOCO1)C=O
     RDKit          3D

 13 13  0  0  0  0  0  0  0  0999 V2000
   -2.2376   -0.5983    1.2955 C   0  0  0  0  0  0  0  0  0  0  0  0
   -2.0716    0.1046    0.0484 N   0  0  0  0  0  0  0  0  0  0  0  0
   -1.0125   -0.2855   -0.8325 C   0  0  0  0  0  0  0  0  0  0  0  0
    0.2856    0.4867   -0.5457 C   0  0  0  0  0  0  0  0  0  0  0  0
    1.2475    0.0615   -1.6131 C   0  0  0  0  0  0  0  0  0  0  0  0
    1.7980   -1.2317   -1.3659 O   0  0  0  0  0  0  0  0  0  0  0  0
    2.7512   -1.6364   -0.4386 C   0  0  0  0  0  0  0  0  0  0  0  0
    3.1563   -1.1644    0.7032 N   0  0  0  0  0  0  0  0  0  0  0  0
    2.7673   -0.0512    1.4258 O   0  0  0  0  0  0  0  0  0  0  0  0
    1.6817    0.8794    1.2743 C   0  0  0  0  0  0  0  0  0  0  0  0
    0.6395    0.2178    0.7249 O   0  0  0  0  0  0  0  0  0  0  0  0
   -2.9451    1.1535   -0.2805 C   0  0  0  0  0  0  0  0  0  0  0  0
   -2.8581    1.8157   -1.3605 O   0  0  0  0  0  0  0  0  0  0  0  0
  1  2  1  0
  2  3  1  0
  3  4  1  0
  4  5  1  0
  5  6  1  0
  6  7  1  0
  7  8  2  0
  8  9  1  0
  9 10  1  0
 10 11  1  0
  2 12  1  0
 12 13  2  0
 11  4  1  0
M  END

