C1=CC=C2C=C3C(=CC2=C1)NC(=N3)C4=NON=C4N
     RDKit          3D

 19 22  0  0  0  0  0  0  0  0999 V2000
    4.6260    0.7658    0.0877 C   0  0  0  0  0  0  0  0  0  0  0  0
    4.7720   -0.5769   -0.1824 C   0  0  0  0  0  0  0  0  0  0  0  0
    3.6545   -1.3658   -0.3256 C   0  0  0  0  0  0  0  0  0  0  0  0
    2.4055   -0.8206   -0.2006 C   0  0  0  0  0  0  0  0  0  0  0  0
    1.2467   -1.5891   -0.3391 C   0  0  0  0  0  0  0  0  0  0  0  0
   -0.0093   -1.0275   -0.2107 C   0  0  0  0  0  0  0  0  0  0  0  0
   -0.1715    0.3136    0.0593 C   0  0  0  0  0  0  0  0  0  0  0  0
    0.9599    1.0845    0.1987 C   0  0  0  0  0  0  0  0  0  0  0  0
    2.2169    0.5161    0.0689 C   0  0  0  0  0  0  0  0  0  0  0  0
    3.3654    1.2984    0.2103 C   0  0  0  0  0  0  0  0  0  0  0  0
   -1.4984    0.5692    0.1275 N   0  0  0  0  0  0  0  0  0  0  0  0
   -2.1805   -0.5650   -0.0903 C   0  0  0  0  0  0  0  0  0  0  0  0
   -1.2668   -1.5271   -0.2943 N   0  0  0  0  0  0  0  0  0  0  0  0
   -3.6487   -0.7372   -0.1057 C   0  0  0  0  0  0  0  0  0  0  0  0
   -4.3211   -1.8716   -0.3236 N   0  0  0  0  0  0  0  0  0  0  0  0
   -5.5744   -1.6006   -0.2532 O   0  0  0  0  0  0  0  0  0  0  0  0
   -5.7821   -0.3455    0.0003 N   0  0  0  0  0  0  0  0  0  0  0  0
   -4.5671    0.2607    0.1056 C   0  0  0  0  0  0  0  0  0  0  0  0
   -4.3427    1.6384    0.3780 N   0  0  0  0  0  0  0  0  0  0  0  0
  1  2  2  0
  2  3  1  0
  3  4  2  0
  4  5  1  0
  5  6  2  0
  6  7  1  0
  7  8  2  0
  8  9  1  0
  9 10  2  0
  7 11  1  0
 11 12  1  0
 12 13  2  0
 12 14  1  0
 14 15  2  0
 15 16  1  0
 16 17  1  0
 17 18  2  0
 18 19  1  0
 10  1  1  0
  9  4  1  0
 13  6  1  0
 18 14  1  0
M  END

