CC1=NC2=C(CN(CC2)CC3CCC=CO3)C(=O)N1
     RDKit          3D

 19 21  0  0  0  0  0  0  0  0999 V2000
   -5.5279    0.4925    0.9061 C   0  0  0  0  0  0  0  0  0  0  0  0
   -4.1527    0.3261    0.3512 C   0  0  0  0  0  0  0  0  0  0  0  0
   -3.4074   -0.7451    0.6573 N   0  0  0  0  0  0  0  0  0  0  0  0
   -2.1706   -0.8423    0.1233 C   0  0  0  0  0  0  0  0  0  0  0  0
   -1.6916    0.1247   -0.7057 C   0  0  0  0  0  0  0  0  0  0  0  0
   -0.3262   -0.0352   -1.2648 C   0  0  0  0  0  0  0  0  0  0  0  0
    0.4937   -0.7051   -0.3240 N   0  0  0  0  0  0  0  0  0  0  0  0
    0.0353   -1.9835    0.0656 C   0  0  0  0  0  0  0  0  0  0  0  0
   -1.4002   -2.0378    0.4925 C   0  0  0  0  0  0  0  0  0  0  0  0
    1.1414    0.0823    0.6610 C   0  0  0  0  0  0  0  0  0  0  0  0
    2.2146    0.9708    0.0773 C   0  0  0  0  0  0  0  0  0  0  0  0
    3.2323    0.2111   -0.7085 C   0  0  0  0  0  0  0  0  0  0  0  0
    4.5841    0.1184   -0.0537 C   0  0  0  0  0  0  0  0  0  0  0  0
    4.5370    0.2246    1.4114 C   0  0  0  0  0  0  0  0  0  0  0  0
    3.6432    1.0096    2.0027 C   0  0  0  0  0  0  0  0  0  0  0  0
    2.7849    1.6984    1.1564 O   0  0  0  0  0  0  0  0  0  0  0  0
   -2.4789    1.2286   -1.0119 C   0  0  0  0  0  0  0  0  0  0  0  0
   -2.0154    2.1063   -1.7783 O   0  0  0  0  0  0  0  0  0  0  0  0
   -3.7043    1.3023   -0.4692 N   0  0  0  0  0  0  0  0  0  0  0  0
  1  2  1  0
  2  3  2  0
  3  4  1  0
  4  5  2  0
  5  6  1  0
  6  7  1  0
  7  8  1  0
  8  9  1  0
  7 10  1  0
 10 11  1  0
 11 12  1  0
 12 13  1  0
 13 14  1  0
 14 15  2  0
 15 16  1  0
  5 17  1  0
 17 18  2  0
 17 19  1  0
 19  2  1  0
  9  4  1  0
 16 11  1  0
M  END

