CC(O)C(O)C(O)C=CCC=CC=C
     RDKit          3D

 14 13  0  0  0  0  0  0  0  0999 V2000
   -4.6511   -0.4884    0.7421 C   0  0  0  0  0  0  0  0  0  0  0  0
   -3.4433   -1.1762    0.1186 C   0  0  0  0  0  0  0  0  0  0  0  0
   -3.5022   -1.2113   -1.2536 O   0  0  0  0  0  0  0  0  0  0  0  0
   -2.1626   -0.5772    0.6360 C   0  0  0  0  0  0  0  0  0  0  0  0
   -2.2113   -0.5901    2.0292 O   0  0  0  0  0  0  0  0  0  0  0  0
   -1.0220   -1.4503    0.1590 C   0  0  0  0  0  0  0  0  0  0  0  0
   -0.9291   -1.4739   -1.2255 O   0  0  0  0  0  0  0  0  0  0  0  0
    0.2509   -0.9256    0.7021 C   0  0  0  0  0  0  0  0  0  0  0  0
    1.1369   -0.4281   -0.1376 C   0  0  0  0  0  0  0  0  0  0  0  0
    2.4215    0.0952    0.4682 C   0  0  0  0  0  0  0  0  0  0  0  0
    2.4581    1.5193    0.0852 C   0  0  0  0  0  0  0  0  0  0  0  0
    3.4114    2.0362   -0.6214 C   0  0  0  0  0  0  0  0  0  0  0  0
    4.5335    1.2976   -1.1109 C   0  0  0  0  0  0  0  0  0  0  0  0
    5.4557    1.9598   -1.8362 C   0  0  0  0  0  0  0  0  0  0  0  0
  1  2  1  0
  2  3  1  0
  2  4  1  0
  4  5  1  0
  4  6  1  0
  6  7  1  0
  6  8  1  0
  8  9  2  3
  9 10  1  0
 10 11  1  0
 11 12  2  3
 12 13  1  0
 13 14  2  0
M  END

