C1=CC=C2C(=C1)C=CC=C2S(=O)(=O)N(CC3=C(C=C(C=C3)F)F)N
     RDKit          3D

 24 26  0  0  0  0  0  0  0  0999 V2000
   -4.8489   -0.5239    0.1535 C   0  0  0  0  0  0  0  0  0  0  0  0
   -3.8461   -1.3808   -0.2751 C   0  0  0  0  0  0  0  0  0  0  0  0
   -2.6531   -0.8925   -0.6932 C   0  0  0  0  0  0  0  0  0  0  0  0
   -2.4208    0.4580   -0.6982 C   0  0  0  0  0  0  0  0  0  0  0  0
   -3.4167    1.3076   -0.2726 C   0  0  0  0  0  0  0  0  0  0  0  0
   -4.6372    0.8424    0.1572 C   0  0  0  0  0  0  0  0  0  0  0  0
   -3.1688    2.6861   -0.2818 C   0  0  0  0  0  0  0  0  0  0  0  0
   -1.9665    3.2119   -0.7013 C   0  0  0  0  0  0  0  0  0  0  0  0
   -0.9875    2.3367   -1.1221 C   0  0  0  0  0  0  0  0  0  0  0  0
   -1.1927    0.9795   -1.1276 C   0  0  0  0  0  0  0  0  0  0  0  0
    0.0400   -0.1287   -1.6577 S   0  0  0  0  0  6  0  0  0  0  0  0
   -0.3953   -0.8432   -2.9085 O   0  0  0  0  0  0  0  0  0  0  0  0
    1.2464    0.6995   -2.0661 O   0  0  0  0  0  0  0  0  0  0  0  0
    0.5029   -1.2197   -0.4616 N   0  0  0  0  0  0  0  0  0  0  0  0
    1.0687   -0.6765    0.7096 C   0  0  0  0  0  0  0  0  0  0  0  0
    2.5409   -0.5576    0.6678 C   0  0  0  0  0  0  0  0  0  0  0  0
    3.1852   -0.0222    1.7910 C   0  0  0  0  0  0  0  0  0  0  0  0
    4.5559    0.0996    1.7839 C   0  0  0  0  0  0  0  0  0  0  0  0
    5.3127   -0.2868    0.7111 C   0  0  0  0  0  0  0  0  0  0  0  0
    4.6920   -0.8166   -0.4042 C   0  0  0  0  0  0  0  0  0  0  0  0
    3.3120   -0.9404   -0.3996 C   0  0  0  0  0  0  0  0  0  0  0  0
    6.6643   -0.1771    0.6794 F   0  0  0  0  0  0  0  0  0  0  0  0
    2.4386    0.3605    2.8533 F   0  0  0  0  0  0  0  0  0  0  0  0
    0.8403   -2.4811   -0.8165 N   0  0  0  0  0  0  0  0  0  0  0  0
  1  2  2  0
  2  3  1  0
  3  4  2  0
  4  5  1  0
  5  6  2  0
  5  7  1  0
  7  8  2  0
  8  9  1  0
  9 10  2  0
 10 11  1  0
 11 12  2  0
 11 13  2  0
 11 14  1  0
 14 15  1  0
 15 16  1  0
 16 17  2  0
 17 18  1  0
 18 19  2  0
 19 20  1  0
 20 21  2  0
 19 22  1  0
 17 23  1  0
 14 24  1  0
  6  1  1  0
 10  4  1  0
 21 16  1  0
M  END

