CC1(CO1)CCC2(OCOO2)C
     RDKit          3D

 12 13  0  0  0  0  0  0  0  0999 V2000
   -2.7644    0.7741   -0.4879 C   0  0  0  0  0  0  0  0  0  0  0  0
   -2.1494   -0.1150    0.5276 C   0  0  0  0  0  0  0  0  0  0  0  0
   -2.7602   -1.2892    1.0917 C   0  0  0  0  0  0  0  0  0  0  0  0
   -2.8728   -0.0634    1.8051 O   0  0  0  0  0  0  0  0  0  0  0  0
   -0.6459    0.0517    0.6919 C   0  0  0  0  0  0  0  0  0  0  0  0
    0.0642   -0.2397   -0.6035 C   0  0  0  0  0  0  0  0  0  0  0  0
    1.5396   -0.0751   -0.4385 C   0  0  0  0  0  0  0  0  0  0  0  0
    1.8499    1.2302   -0.0509 O   0  0  0  0  0  0  0  0  0  0  0  0
    2.7864    1.0452    0.9405 C   0  0  0  0  0  0  0  0  0  0  0  0
    3.1192   -0.3094    0.9234 O   0  0  0  0  0  0  0  0  0  0  0  0
    2.0081   -0.8948    0.5833 O   0  0  0  0  0  0  0  0  0  0  0  0
    2.2373   -0.4534   -1.7306 C   0  0  0  0  0  0  0  0  0  0  0  0
  1  2  1  0
  2  3  1  0
  3  4  1  0
  2  5  1  0
  5  6  1  0
  6  7  1  0
  7  8  1  0
  8  9  1  0
  9 10  1  0
 10 11  1  0
  7 12  1  0
  4  2  1  0
 11  7  1  0
M  END

