COC1=C(C=CN=C1)OCC(=O)O
     RDKit          3D

 13 13  0  0  0  0  0  0  0  0999 V2000
   -2.4689   -2.2409    1.2822 C   0  0  0  0  0  0  0  0  0  0  0  0
   -1.3222   -1.5876    0.8238 O   0  0  0  0  0  0  0  0  0  0  0  0
   -1.3155   -0.2894    0.3264 C   0  0  0  0  0  0  0  0  0  0  0  0
   -0.1355    0.2801   -0.1062 C   0  0  0  0  0  0  0  0  0  0  0  0
   -0.1896    1.5708   -0.5896 C   0  0  0  0  0  0  0  0  0  0  0  0
   -1.3725    2.2786   -0.6447 C   0  0  0  0  0  0  0  0  0  0  0  0
   -2.5129    1.7149   -0.2215 N   0  0  0  0  0  0  0  0  0  0  0  0
   -2.4842    0.4404    0.2604 C   0  0  0  0  0  0  0  0  0  0  0  0
    1.0726   -0.4029   -0.0652 O   0  0  0  0  0  0  0  0  0  0  0  0
    2.2477    0.2379   -0.5242 C   0  0  0  0  0  0  0  0  0  0  0  0
    3.4311   -0.6180   -0.4126 C   0  0  0  0  0  0  0  0  0  0  0  0
    3.3139   -1.7820    0.0537 O   0  0  0  0  0  0  0  0  0  0  0  0
    4.6581   -0.1654   -0.8091 O   0  0  0  0  0  0  0  0  0  0  0  0
  1  2  1  0
  2  3  1  0
  3  4  2  0
  4  5  1  0
  5  6  2  0
  6  7  1  0
  7  8  2  0
  4  9  1  0
  9 10  1  0
 10 11  1  0
 11 12  2  0
 11 13  1  0
  8  3  1  0
M  END

