C1=CC=C(C(=C1)C2=NC(=CS2)C3=CC(=CO3)C(=O)N)O
     RDKit          3D

 20 22  0  0  0  0  0  0  0  0999 V2000
   -5.2856    0.8221    0.9160 C   0  0  0  0  0  0  0  0  0  0  0  0
   -5.6408    0.4427   -0.3620 C   0  0  0  0  0  0  0  0  0  0  0  0
   -4.6452    0.0598   -1.2349 C   0  0  0  0  0  0  0  0  0  0  0  0
   -3.3145    0.0381   -0.8912 C   0  0  0  0  0  0  0  0  0  0  0  0
   -2.9936    0.4220    0.3903 C   0  0  0  0  0  0  0  0  0  0  0  0
   -3.9432    0.8154    1.3095 C   0  0  0  0  0  0  0  0  0  0  0  0
   -1.5728    0.4115    0.7962 C   0  0  0  0  0  0  0  0  0  0  0  0
   -0.5091    0.0751    0.0878 N   0  0  0  0  0  0  0  0  0  0  0  0
    0.6671    0.1329    0.6287 C   0  0  0  0  0  0  0  0  0  0  0  0
    0.7441    0.5491    1.9350 C   0  0  0  0  0  0  0  0  0  0  0  0
   -0.8988    0.8336    2.3049 S   0  0  0  0  0  0  0  0  0  0  0  0
    1.8920   -0.2362   -0.1309 C   0  0  0  0  0  0  0  0  0  0  0  0
    3.1895   -0.2168    0.3289 C   0  0  0  0  0  0  0  0  0  0  0  0
    4.0513   -0.6265   -0.6679 C   0  0  0  0  0  0  0  0  0  0  0  0
    3.2102   -0.8880   -1.7331 C   0  0  0  0  0  0  0  0  0  0  0  0
    1.9733   -0.6480   -1.3749 O   0  0  0  0  0  0  0  0  0  0  0  0
    5.4931   -0.7530   -0.6129 C   0  0  0  0  0  0  0  0  0  0  0  0
    6.1609   -1.1379   -1.5933 O   0  0  0  0  0  0  0  0  0  0  0  0
    6.1657   -0.4310    0.5869 N   0  0  0  0  0  0  0  0  0  0  0  0
   -2.2932   -0.3418   -1.7465 O   0  0  0  0  0  0  0  0  0  0  0  0
  1  2  2  0
  2  3  1  0
  3  4  2  0
  4  5  1  0
  5  6  2  0
  5  7  1  0
  7  8  2  0
  8  9  1  0
  9 10  2  0
 10 11  1  0
  9 12  1  0
 12 13  2  0
 13 14  1  0
 14 15  2  0
 15 16  1  0
 14 17  1  0
 17 18  2  0
 17 19  1  0
  4 20  1  0
  6  1  1  0
 11  7  1  0
 16 12  1  0
M  END

