CC([NH3+])COCC1(O)CCOC1CC(C)C#N
     RDKit          3D

 17 17  0  0  0  0  0  0  0  0999 V2000
    4.9134    1.5137    0.1217 C   0  0  0  0  0  0  0  0  0  0  0  0
    3.8855    0.4208    0.3879 C   0  0  0  0  0  0  0  0  0  0  0  0
    4.0468   -0.6707   -0.5419 N   0  0  0  0  0  4  0  0  0  0  0  0
    2.4691    1.0045    0.2933 C   0  0  0  0  0  0  0  0  0  0  0  0
    1.6050   -0.0283    0.6023 O   0  0  0  0  0  0  0  0  0  0  0  0
    0.2669    0.3680    0.5538 C   0  0  0  0  0  0  0  0  0  0  0  0
   -0.5569   -0.8341    0.9058 C   0  0  0  0  0  0  0  0  0  0  0  0
   -0.1960   -1.2432    2.1809 O   0  0  0  0  0  0  0  0  0  0  0  0
   -0.1519   -1.9542   -0.0435 C   0  0  0  0  0  0  0  0  0  0  0  0
   -1.4603   -2.7145   -0.1435 C   0  0  0  0  0  0  0  0  0  0  0  0
   -2.3901   -1.6870   -0.2391 O   0  0  0  0  0  0  0  0  0  0  0  0
   -2.0043   -0.7125    0.6822 C   0  0  0  0  0  0  0  0  0  0  0  0
   -2.4841    0.6309    0.2250 C   0  0  0  0  0  0  0  0  0  0  0  0
   -3.9847    0.5957    0.0405 C   0  0  0  0  0  0  0  0  0  0  0  0
   -4.4935    1.9505   -0.4238 C   0  0  0  0  0  0  0  0  0  0  0  0
   -4.3594   -0.3650   -1.0086 C   0  0  0  0  0  0  0  0  0  0  0  0
   -4.6510   -1.1113   -1.8381 N   0  0  0  0  0  0  0  0  0  0  0  0
  1  2  1  0
  2  3  1  0
  2  4  1  0
  4  5  1  0
  5  6  1  0
  6  7  1  0
  7  8  1  0
  7  9  1  0
  9 10  1  0
 10 11  1  0
 11 12  1  0
 12 13  1  0
 13 14  1  0
 14 15  1  0
 14 16  1  0
 16 17  3  0
 12  7  1  0
M  CHG  1   3   1
M  END

