C1CC(CCC1C(=O)C2CCC(CC2)Cl)SC3CCC(CC3)Cl
     RDKit          3D

 23 25  0  0  0  0  0  0  0  0999 V2000
   -0.8849   -0.1568    1.8428 C   0  0  0  0  0  0  0  0  0  0  0  0
    0.6264   -0.4023    1.9339 C   0  0  0  0  0  0  0  0  0  0  0  0
    0.9531   -1.3779    0.8079 C   0  0  0  0  0  0  0  0  0  0  0  0
    0.2864   -1.0792   -0.4774 C   0  0  0  0  0  0  0  0  0  0  0  0
   -0.3640    0.2786   -0.5854 C   0  0  0  0  0  0  0  0  0  0  0  0
   -1.0350    0.7623    0.6435 C   0  0  0  0  0  0  0  0  0  0  0  0
   -2.4001    1.2315    0.4439 C   0  0  0  0  0  0  0  0  0  0  0  0
   -2.5470    2.4677    0.3632 O   0  0  0  0  0  0  0  0  0  0  0  0
   -3.6351    0.4463    0.3224 C   0  0  0  0  0  0  0  0  0  0  0  0
   -3.5735   -0.4266   -0.8790 C   0  0  0  0  0  0  0  0  0  0  0  0
   -4.8491   -1.2074   -1.1170 C   0  0  0  0  0  0  0  0  0  0  0  0
   -6.0721   -0.4184   -0.7177 C   0  0  0  0  0  0  0  0  0  0  0  0
   -5.7033    1.0463   -0.8312 C   0  0  0  0  0  0  0  0  0  0  0  0
   -4.8167    1.3658    0.3512 C   0  0  0  0  0  0  0  0  0  0  0  0
   -7.5049   -0.8450   -1.6389 Cl  0  0  0  0  0  0  0  0  0  0  0  0
    2.6943   -1.7746    0.7492 S   0  0  0  0  0  0  0  0  0  0  0  0
    3.8066   -0.4350    0.3953 C   0  0  0  0  0  0  0  0  0  0  0  0
    3.7157    0.0971   -1.0115 C   0  0  0  0  0  0  0  0  0  0  0  0
    4.6816    1.2829   -1.0908 C   0  0  0  0  0  0  0  0  0  0  0  0
    6.0870    0.7415   -1.1029 C   0  0  0  0  0  0  0  0  0  0  0  0
    6.1743   -0.6277   -0.4705 C   0  0  0  0  0  0  0  0  0  0  0  0
    5.2494   -0.7757    0.7064 C   0  0  0  0  0  0  0  0  0  0  0  0
    7.2043    1.8608   -0.3020 Cl  0  0  0  0  0  0  0  0  0  0  0  0
  1  2  1  0
  2  3  1  0
  3  4  1  0
  4  5  1  0
  5  6  1  0
  6  7  1  0
  7  8  2  0
  7  9  1  0
  9 10  1  0
 10 11  1  0
 11 12  1  0
 12 13  1  0
 13 14  1  0
 12 15  1  0
  3 16  1  0
 16 17  1  0
 17 18  1  0
 18 19  1  0
 19 20  1  0
 20 21  1  0
 21 22  1  0
 20 23  1  0
  6  1  1  0
 14  9  1  0
 22 17  1  0
M  END

