CC(=O)N(C#N)C1=CC=CS1
     RDKit          3D

 11 11  0  0  0  0  0  0  0  0999 V2000
   -1.8391   -1.0596    0.5010 C   0  0  0  0  0  0  0  0  0  0  0  0
   -1.9255    0.3889    0.3175 C   0  0  0  0  0  0  0  0  0  0  0  0
   -3.0635    0.9403    0.3589 O   0  0  0  0  0  0  0  0  0  0  0  0
   -0.8098    1.1940    0.0974 N   0  0  0  0  0  0  0  0  0  0  0  0
   -0.8878    2.5792   -0.0764 C   0  0  0  0  0  0  0  0  0  0  0  0
   -0.9644    3.7256   -0.2145 N   0  0  0  0  0  0  0  0  0  0  0  0
    0.4786    0.5347    0.0505 C   0  0  0  0  0  0  0  0  0  0  0  0
    0.9124   -0.3577   -0.8892 C   0  0  0  0  0  0  0  0  0  0  0  0
    2.1649   -0.8521   -0.7406 C   0  0  0  0  0  0  0  0  0  0  0  0
    2.8766   -0.4087    0.3398 C   0  0  0  0  0  0  0  0  0  0  0  0
    1.8072    0.6642    1.1083 S   0  0  0  0  0  0  0  0  0  0  0  0
  1  2  1  0
  2  3  2  0
  2  4  1  0
  4  5  1  0
  5  6  3  0
  4  7  1  0
  7  8  2  0
  8  9  1  0
  9 10  2  0
 10 11  1  0
 11  7  1  0
M  END

