CCN1CCCC(C1)(C)C(=O)NCCC2=NNC(=O)N2
     RDKit          3D

 20 21  0  0  0  0  0  0  0  0999 V2000
   -4.7494    1.8701   -1.3491 C   0  0  0  0  0  0  0  0  0  0  0  0
   -4.1583    1.3516   -0.0578 C   0  0  0  0  0  0  0  0  0  0  0  0
   -3.0396    0.5095   -0.3921 N   0  0  0  0  0  0  0  0  0  0  0  0
   -3.4523   -0.6888   -1.0411 C   0  0  0  0  0  0  0  0  0  0  0  0
   -2.1916   -1.4927   -1.3958 C   0  0  0  0  0  0  0  0  0  0  0  0
   -1.6199   -1.9207   -0.0653 C   0  0  0  0  0  0  0  0  0  0  0  0
   -1.1505   -0.6951    0.6650 C   0  0  0  0  0  0  0  0  0  0  0  0
   -2.1906    0.3624    0.7335 C   0  0  0  0  0  0  0  0  0  0  0  0
   -0.8387   -1.1591    2.0970 C   0  0  0  0  0  0  0  0  0  0  0  0
    0.1586   -0.1850    0.1481 C   0  0  0  0  0  0  0  0  0  0  0  0
    0.2462    1.0005   -0.2626 O   0  0  0  0  0  0  0  0  0  0  0  0
    1.2801   -1.0260    0.1235 N   0  0  0  0  0  0  0  0  0  0  0  0
    2.5861   -0.6452   -0.3421 C   0  0  0  0  0  0  0  0  0  0  0  0
    3.1818    0.4875    0.4327 C   0  0  0  0  0  0  0  0  0  0  0  0
    4.5266    0.8240   -0.1041 C   0  0  0  0  0  0  0  0  0  0  0  0
    4.8821    1.6959   -1.0641 N   0  0  0  0  0  0  0  0  0  0  0  0
    6.2005    1.6973   -1.2488 N   0  0  0  0  0  0  0  0  0  0  0  0
    6.7228    0.8059   -0.3898 C   0  0  0  0  0  0  0  0  0  0  0  0
    7.9509    0.5655   -0.3094 O   0  0  0  0  0  0  0  0  0  0  0  0
    5.7056    0.2754    0.3050 N   0  0  0  0  0  0  0  0  0  0  0  0
  1  2  1  0
  2  3  1  0
  3  4  1  0
  4  5  1  0
  5  6  1  0
  6  7  1  0
  7  8  1  0
  7  9  1  0
  7 10  1  0
 10 11  2  0
 10 12  1  0
 12 13  1  0
 13 14  1  0
 14 15  1  0
 15 16  2  0
 16 17  1  0
 17 18  1  0
 18 19  2  0
 18 20  1  0
  8  3  1  0
 20 15  1  0
M  END

