CCC1=CC=C(C=C1)C2CC(=O)NC3=NNC(=C23)C
     RDKit          3D

 19 21  0  0  0  0  0  0  0  0999 V2000
    4.8776   -0.4322   -0.4143 C   0  0  0  0  0  0  0  0  0  0  0  0
    3.7367   -1.0855   -1.1469 C   0  0  0  0  0  0  0  0  0  0  0  0
    2.4507   -0.6358   -0.5496 C   0  0  0  0  0  0  0  0  0  0  0  0
    1.8973   -1.3456    0.4866 C   0  0  0  0  0  0  0  0  0  0  0  0
    0.6999   -0.8594    0.9847 C   0  0  0  0  0  0  0  0  0  0  0  0
    0.0774    0.2826    0.4765 C   0  0  0  0  0  0  0  0  0  0  0  0
    0.6701    0.9477   -0.5514 C   0  0  0  0  0  0  0  0  0  0  0  0
    1.8670    0.4852   -1.0693 C   0  0  0  0  0  0  0  0  0  0  0  0
   -1.2013    0.6865    1.0979 C   0  0  0  0  0  0  0  0  0  0  0  0
   -1.2346    2.1692    1.2988 C   0  0  0  0  0  0  0  0  0  0  0  0
   -1.7306    2.8873    0.1125 C   0  0  0  0  0  0  0  0  0  0  0  0
   -1.2388    4.0125   -0.2502 O   0  0  0  0  0  0  0  0  0  0  0  0
   -2.7834    2.3292   -0.6592 N   0  0  0  0  0  0  0  0  0  0  0  0
   -3.0825    0.9518   -0.5742 C   0  0  0  0  0  0  0  0  0  0  0  0
   -4.0087    0.1411   -1.1604 N   0  0  0  0  0  0  0  0  0  0  0  0
   -3.8704   -1.0972   -0.7244 N   0  0  0  0  0  0  0  0  0  0  0  0
   -2.8549   -1.1067    0.1484 C   0  0  0  0  0  0  0  0  0  0  0  0
   -2.3264    0.1831    0.2704 C   0  0  0  0  0  0  0  0  0  0  0  0
   -2.3548   -2.2951    0.8833 C   0  0  0  0  0  0  0  0  0  0  0  0
  1  2  1  0
  2  3  1  0
  3  4  2  0
  4  5  1  0
  5  6  2  0
  6  7  1  0
  7  8  2  0
  6  9  1  0
  9 10  1  0
 10 11  1  0
 11 12  2  0
 11 13  1  0
 13 14  1  0
 14 15  2  0
 15 16  1  0
 16 17  1  0
 17 18  2  0
 17 19  1  0
  8  3  1  0
 18  9  1  0
 18 14  1  0
M  END

