C1=CC=C(C=C1)C(=O)OCCOC(=O)C2=CC=C(C=C2)C(=O)O
     RDKit          3D

 23 24  0  0  0  0  0  0  0  0999 V2000
   -7.4999    0.1016    0.7001 C   0  0  0  0  0  0  0  0  0  0  0  0
   -7.0824   -1.2089    0.7774 C   0  0  0  0  0  0  0  0  0  0  0  0
   -5.7335   -1.5305    0.6169 C   0  0  0  0  0  0  0  0  0  0  0  0
   -4.8290   -0.5194    0.3806 C   0  0  0  0  0  0  0  0  0  0  0  0
   -5.2823    0.7760    0.3100 C   0  0  0  0  0  0  0  0  0  0  0  0
   -6.5942    1.1368    0.4611 C   0  0  0  0  0  0  0  0  0  0  0  0
   -3.4158   -0.8394    0.2114 C   0  0  0  0  0  0  0  0  0  0  0  0
   -3.0164   -2.0311    0.2807 O   0  0  0  0  0  0  0  0  0  0  0  0
   -2.4572    0.1261   -0.0293 O   0  0  0  0  0  0  0  0  0  0  0  0
   -1.0726   -0.2174   -0.1917 C   0  0  0  0  0  0  0  0  0  0  0  0
   -0.3543    1.0919   -0.4349 C   0  0  0  0  0  0  0  0  0  0  0  0
    1.0189    0.9224   -0.6146 O   0  0  0  0  0  0  0  0  0  0  0  0
    1.8712    0.3804    0.3124 C   0  0  0  0  0  0  0  0  0  0  0  0
    1.4269   -0.0041    1.4164 O   0  0  0  0  0  0  0  0  0  0  0  0
    3.3143    0.2452    0.0198 C   0  0  0  0  0  0  0  0  0  0  0  0
    3.7823    0.6784   -1.2116 C   0  0  0  0  0  0  0  0  0  0  0  0
    5.1476    0.5426   -1.4690 C   0  0  0  0  0  0  0  0  0  0  0  0
    6.0010    0.0005   -0.5407 C   0  0  0  0  0  0  0  0  0  0  0  0
    5.4928   -0.4155    0.6666 C   0  0  0  0  0  0  0  0  0  0  0  0
    4.1495   -0.2991    0.9610 C   0  0  0  0  0  0  0  0  0  0  0  0
    7.4113   -0.1269   -0.8377 C   0  0  0  0  0  0  0  0  0  0  0  0
    7.8587    0.2594   -1.9497 O   0  0  0  0  0  0  0  0  0  0  0  0
    8.2548   -0.6849    0.1335 O   0  0  0  0  0  0  0  0  0  0  0  0
  1  2  2  0
  2  3  1  0
  3  4  2  0
  4  5  1  0
  5  6  2  0
  4  7  1  0
  7  8  2  0
  7  9  1  0
  9 10  1  0
 10 11  1  0
 11 12  1  0
 12 13  1  0
 13 14  2  0
 13 15  1  0
 15 16  2  0
 16 17  1  0
 17 18  2  0
 18 19  1  0
 19 20  2  0
 18 21  1  0
 21 22  2  0
 21 23  1  0
  6  1  1  0
 20 15  1  0
M  END

