C1=CC(=C(N=C1)N2C(=NC=N2)N)Cl
     RDKit          3D

 13 14  0  0  0  0  0  0  0  0999 V2000
   -2.9526    0.8603   -0.1552 C   0  0  0  0  0  0  0  0  0  0  0  0
   -2.5181   -0.2344   -0.8730 C   0  0  0  0  0  0  0  0  0  0  0  0
   -1.2408   -0.7002   -0.6622 C   0  0  0  0  0  0  0  0  0  0  0  0
   -0.3702   -0.1194    0.2389 C   0  0  0  0  0  0  0  0  0  0  0  0
   -0.8157    0.9466    0.9273 N   0  0  0  0  0  0  0  0  0  0  0  0
   -2.0588    1.4216    0.7405 C   0  0  0  0  0  0  0  0  0  0  0  0
    0.9528   -0.6013    0.4578 N   0  0  0  0  0  0  0  0  0  0  0  0
    2.0924   -0.0008    0.0274 C   0  0  0  0  0  0  0  0  0  0  0  0
    3.1475   -0.7381    0.4172 N   0  0  0  0  0  0  0  0  0  0  0  0
    2.6826   -1.8042    1.0933 C   0  0  0  0  0  0  0  0  0  0  0  0
    1.3473   -1.6858    1.0965 N   0  0  0  0  0  0  0  0  0  0  0  0
    2.1912    1.2099   -0.7162 N   0  0  0  0  0  0  0  0  0  0  0  0
   -0.6798   -2.0814   -1.5618 Cl  0  0  0  0  0  0  0  0  0  0  0  0
  1  2  2  0
  2  3  1  0
  3  4  2  0
  4  5  1  0
  5  6  2  0
  4  7  1  0
  7  8  1  0
  8  9  2  0
  9 10  1  0
 10 11  2  0
  8 12  1  0
  3 13  1  0
  6  1  1  0
 11  7  1  0
M  END

