NC(=N)NNC(=N)C=NN=C
     RDKit          3D

 11 10  0  0  0  0  0  0  0  0999 V2000
   -2.6554    1.7505    0.6437 N   0  0  0  0  0  0  0  0  0  0  0  0
   -2.3437    0.5337   -0.0069 C   0  0  0  0  0  0  0  0  0  0  0  0
   -2.4799    0.4693   -1.2824 N   0  0  0  0  0  0  0  0  0  0  0  0
   -1.8898   -0.6165    0.6728 N   0  0  0  0  0  0  0  0  0  0  0  0
   -0.6012   -0.7863    1.1689 N   0  0  0  0  0  0  0  0  0  0  0  0
    0.4427   -1.4323    0.4566 C   0  0  0  0  0  0  0  0  0  0  0  0
    0.4220   -2.7108    0.3587 N   0  0  0  0  0  0  0  0  0  0  0  0
    1.5061   -0.6521   -0.1443 C   0  0  0  0  0  0  0  0  0  0  0  0
    1.5316    0.6253   -0.0495 N   0  0  0  0  0  0  0  0  0  0  0  0
    2.4931    1.4463   -0.5828 N   0  0  0  0  0  0  0  0  0  0  0  0
    3.7462    1.2484   -0.3049 C   0  0  0  0  0  0  0  0  0  0  0  0
  1  2  1  0
  2  3  2  0
  2  4  1  0
  4  5  1  0
  5  6  1  0
  6  7  2  0
  6  8  1  0
  8  9  2  3
  9 10  1  0
 10 11  2  0
M  END

