COC1=C2CCCCC2=CN=N1
     RDKit          3D

 12 13  0  0  0  0  0  0  0  0999 V2000
    3.7811   -0.7566   -0.1577 C   0  0  0  0  0  0  0  0  0  0  0  0
    2.3942   -0.9079    0.0614 O   0  0  0  0  0  0  0  0  0  0  0  0
    1.5275    0.1583   -0.1247 C   0  0  0  0  0  0  0  0  0  0  0  0
    0.1689    0.0524    0.0782 C   0  0  0  0  0  0  0  0  0  0  0  0
   -0.3584   -1.2556    0.5094 C   0  0  0  0  0  0  0  0  0  0  0  0
   -1.8120   -1.4267    0.4014 C   0  0  0  0  0  0  0  0  0  0  0  0
   -2.6452   -0.3002   -0.0319 C   0  0  0  0  0  0  0  0  0  0  0  0
   -2.0745    1.0712    0.0810 C   0  0  0  0  0  0  0  0  0  0  0  0
   -0.6149    1.1412   -0.1248 C   0  0  0  0  0  0  0  0  0  0  0  0
   -0.0396    2.3304   -0.5290 C   0  0  0  0  0  0  0  0  0  0  0  0
    1.2712    2.4131   -0.7193 N   0  0  0  0  0  0  0  0  0  0  0  0
    2.0169    1.3462   -0.5176 N   0  0  0  0  0  0  0  0  0  0  0  0
  1  2  1  0
  2  3  1  0
  3  4  2  0
  4  5  1  0
  5  6  1  0
  6  7  1  0
  7  8  1  0
  8  9  1  0
  9 10  2  0
 10 11  1  0
 11 12  2  0
 12  3  1  0
  9  4  1  0
M  END

