CCOC1=C(C=CC(=C1)/C=N\N2C(=NN=C2C)C)O
     RDKit          3D

 19 20  0  0  0  0  0  0  0  0999 V2000
    3.7853   -0.2390    2.1780 C   0  0  0  0  0  0  0  0  0  0  0  0
    4.2864    0.1847    0.8348 C   0  0  0  0  0  0  0  0  0  0  0  0
    3.7067   -0.4429   -0.2585 O   0  0  0  0  0  0  0  0  0  0  0  0
    2.3714   -0.3994   -0.5981 C   0  0  0  0  0  0  0  0  0  0  0  0
    1.8934   -1.0746   -1.7061 C   0  0  0  0  0  0  0  0  0  0  0  0
    0.5625   -1.0008   -1.9994 C   0  0  0  0  0  0  0  0  0  0  0  0
   -0.3435   -0.2653   -1.2197 C   0  0  0  0  0  0  0  0  0  0  0  0
    0.0974    0.3996   -0.1354 C   0  0  0  0  0  0  0  0  0  0  0  0
    1.4783    0.3114    0.1504 C   0  0  0  0  0  0  0  0  0  0  0  0
   -0.6499    1.1538    0.8419 C   0  0  0  0  0  0  0  0  0  0  0  0
   -1.8739    1.1252    0.9075 N   0  0  0  0  0  0  0  0  0  0  0  0
   -2.8013    0.4931    0.2214 N   0  0  0  0  0  0  0  0  0  0  0  0
   -3.6025    1.0516   -0.7378 C   0  0  0  0  0  0  0  0  0  0  0  0
   -4.4793    0.1662   -1.2054 N   0  0  0  0  0  0  0  0  0  0  0  0
   -4.2422   -0.9456   -0.5532 N   0  0  0  0  0  0  0  0  0  0  0  0
   -3.2346   -0.7883    0.3187 C   0  0  0  0  0  0  0  0  0  0  0  0
   -2.7075   -1.8351    1.2142 C   0  0  0  0  0  0  0  0  0  0  0  0
   -3.5436    2.4668   -1.2339 C   0  0  0  0  0  0  0  0  0  0  0  0
    2.7766   -1.7922   -2.4668 O   0  0  0  0  0  0  0  0  0  0  0  0
  1  2  1  0
  2  3  1  0
  3  4  1  0
  4  5  2  0
  5  6  1  0
  6  7  2  0
  7  8  1  0
  8  9  2  0
  8 10  1  0
 10 11  2  0
 11 12  1  0
 12 13  1  0
 13 14  2  0
 14 15  1  0
 15 16  2  0
 16 17  1  0
 13 18  1  0
  5 19  1  0
  9  4  1  0
 16 12  1  0
M  END

