CCCCS/C(=N/N=CC1=C(C=CC(=C1)C)O)/N
     RDKit          3D

 18 18  0  0  0  0  0  0  0  0999 V2000
    5.2179   -0.8405    1.9876 C   0  0  0  0  0  0  0  0  0  0  0  0
    5.8252   -0.9753    0.6137 C   0  0  0  0  0  0  0  0  0  0  0  0
    5.3329    0.1406   -0.3091 C   0  0  0  0  0  0  0  0  0  0  0  0
    3.8289    0.0067   -0.3865 C   0  0  0  0  0  0  0  0  0  0  0  0
    3.1026    1.2756   -1.4563 S   0  0  0  0  0  0  0  0  0  0  0  0
    1.3545    1.0324   -1.4787 C   0  0  0  0  0  0  0  0  0  0  0  0
    0.8156    0.0933   -0.8167 N   0  0  0  0  0  0  0  0  0  0  0  0
   -0.5443   -0.1331   -0.8054 N   0  0  0  0  0  0  0  0  0  0  0  0
   -1.3593    0.2928    0.0777 C   0  0  0  0  0  0  0  0  0  0  0  0
   -2.7750   -0.0133   -0.0203 C   0  0  0  0  0  0  0  0  0  0  0  0
   -3.3029   -0.7654   -1.0526 C   0  0  0  0  0  0  0  0  0  0  0  0
   -4.6497   -1.0483   -1.1328 C   0  0  0  0  0  0  0  0  0  0  0  0
   -5.5291   -0.5904   -0.1822 C   0  0  0  0  0  0  0  0  0  0  0  0
   -5.0314    0.1644    0.8624 C   0  0  0  0  0  0  0  0  0  0  0  0
   -3.6828    0.4384    0.9281 C   0  0  0  0  0  0  0  0  0  0  0  0
   -5.9780    0.6623    1.8933 C   0  0  0  0  0  0  0  0  0  0  0  0
   -2.4088   -1.2294   -2.0166 O   0  0  0  0  0  0  0  0  0  0  0  0
    0.5586    1.9017   -2.2476 N   0  0  0  0  0  0  0  0  0  0  0  0
  1  2  1  0
  2  3  1  0
  3  4  1  0
  4  5  1  0
  5  6  1  0
  6  7  2  0
  7  8  1  0
  8  9  2  0
  9 10  1  0
 10 11  2  0
 11 12  1  0
 12 13  2  0
 13 14  1  0
 14 15  2  0
 14 16  1  0
 11 17  1  0
  6 18  1  0
 15 10  1  0
M  END

