CC(O)(C=C)C(CO)=CC(O)C#N
     RDKit          3D

 13 12  0  0  0  0  0  0  0  0999 V2000
   -1.5811    1.3062    0.7673 C   0  0  0  0  0  0  0  0  0  0  0  0
   -1.1692   -0.0936    0.3685 C   0  0  0  0  0  0  0  0  0  0  0  0
   -1.6857   -0.9875    1.3177 O   0  0  0  0  0  0  0  0  0  0  0  0
   -1.7955   -0.3795   -0.9380 C   0  0  0  0  0  0  0  0  0  0  0  0
   -3.0564   -0.7517   -0.9793 C   0  0  0  0  0  0  0  0  0  0  0  0
    0.3113   -0.2073    0.2645 C   0  0  0  0  0  0  0  0  0  0  0  0
    0.9526   -1.4992   -0.1174 C   0  0  0  0  0  0  0  0  0  0  0  0
    0.4738   -1.8400   -1.3864 O   0  0  0  0  0  0  0  0  0  0  0  0
    1.0687    0.8414    0.5118 C   0  0  0  0  0  0  0  0  0  0  0  0
    2.5493    0.7813    0.4224 C   0  0  0  0  0  0  0  0  0  0  0  0
    3.0951    1.9724    0.9593 O   0  0  0  0  0  0  0  0  0  0  0  0
    3.0117    0.6205   -0.9654 C   0  0  0  0  0  0  0  0  0  0  0  0
    3.3685    0.5029   -2.0622 N   0  0  0  0  0  0  0  0  0  0  0  0
  1  2  1  0
  2  3  1  0
  2  4  1  0
  4  5  2  0
  2  6  1  0
  6  7  1  0
  7  8  1  0
  6  9  2  3
  9 10  1  0
 10 11  1  0
 10 12  1  0
 12 13  3  0
M  END

