C1=CN=C(C(=C1Cl)C(=N)N)F
     RDKit          3D

 11 11  0  0  0  0  0  0  0  0999 V2000
    2.0997   -0.8762    0.1528 C   0  0  0  0  0  0  0  0  0  0  0  0
    2.6168    0.3885    0.0539 C   0  0  0  0  0  0  0  0  0  0  0  0
    1.7750    1.4104   -0.0682 N   0  0  0  0  0  0  0  0  0  0  0  0
    0.4344    1.2303   -0.0965 C   0  0  0  0  0  0  0  0  0  0  0  0
   -0.1400   -0.0440    0.0013 C   0  0  0  0  0  0  0  0  0  0  0  0
    0.7079   -1.0888    0.1257 C   0  0  0  0  0  0  0  0  0  0  0  0
    0.0965   -2.7170    0.2548 Cl  0  0  0  0  0  0  0  0  0  0  0  0
   -1.5705   -0.1419   -0.0376 C   0  0  0  0  0  0  0  0  0  0  0  0
   -2.3341   -1.1449    0.0290 N   0  0  0  0  0  0  0  0  0  0  0  0
   -2.3549    1.0920   -0.1772 N   0  0  0  0  0  0  0  0  0  0  0  0
   -0.3910    2.2932   -0.2218 F   0  0  0  0  0  0  0  0  0  0  0  0
  1  2  2  0
  2  3  1  0
  3  4  2  0
  4  5  1  0
  5  6  2  0
  6  7  1  0
  5  8  1  0
  8  9  2  0
  8 10  1  0
  4 11  1  0
  6  1  1  0
M  END

