C/C(=N/OC(=O)C1=CC=C(C=C1)Cl)/C2=CC=CN2
     RDKit          3D

 18 19  0  0  0  0  0  0  0  0999 V2000
   -3.7154    1.8483    0.3054 C   0  0  0  0  0  0  0  0  0  0  0  0
   -2.4504    1.1117    0.0171 C   0  0  0  0  0  0  0  0  0  0  0  0
   -1.3545    1.7559   -0.0670 N   0  0  0  0  0  0  0  0  0  0  0  0
   -0.1348    1.2200   -0.3225 O   0  0  0  0  0  0  0  0  0  0  0  0
    0.9379    1.3029    0.5511 C   0  0  0  0  0  0  0  0  0  0  0  0
    0.7336    1.9149    1.6286 O   0  0  0  0  0  0  0  0  0  0  0  0
    2.2459    0.7087    0.2384 C   0  0  0  0  0  0  0  0  0  0  0  0
    3.3006    0.8017    1.1205 C   0  0  0  0  0  0  0  0  0  0  0  0
    4.5286    0.2397    0.8188 C   0  0  0  0  0  0  0  0  0  0  0  0
    4.7312   -0.4255   -0.3657 C   0  0  0  0  0  0  0  0  0  0  0  0
    3.6862   -0.5242   -1.2524 C   0  0  0  0  0  0  0  0  0  0  0  0
    2.4663    0.0378   -0.9454 C   0  0  0  0  0  0  0  0  0  0  0  0
    6.2873   -1.1514   -0.7751 Cl  0  0  0  0  0  0  0  0  0  0  0  0
   -2.4365   -0.3297   -0.1712 C   0  0  0  0  0  0  0  0  0  0  0  0
   -3.6184   -1.0693   -0.0863 C   0  0  0  0  0  0  0  0  0  0  0  0
   -3.2906   -2.3818   -0.3060 C   0  0  0  0  0  0  0  0  0  0  0  0
   -1.9513   -2.4383   -0.5177 C   0  0  0  0  0  0  0  0  0  0  0  0
   -1.4591   -1.1876   -0.4313 N   0  0  0  0  0  0  0  0  0  0  0  0
  1  2  1  0
  2  3  2  0
  3  4  1  0
  4  5  1  0
  5  6  2  0
  5  7  1  0
  7  8  2  0
  8  9  1  0
  9 10  2  0
 10 11  1  0
 11 12  2  0
 10 13  1  0
  2 14  1  0
 14 15  2  0
 15 16  1  0
 16 17  2  0
 17 18  1  0
 12  7  1  0
 18 14  1  0
M  END

