CC(O)C(C)C([N])CCCCCC(=[N])CC[N]
     RDKit          3D

 17 16  0  0  0  0  0  0  0  0999 V2000
   -5.0985   -0.5051   -0.7826 C   0  0  0  0  0  0  0  0  0  0  0  0
   -3.8026   -0.4626    0.0291 C   0  0  0  0  0  0  0  0  0  0  0  0
   -3.0596   -1.5748   -0.4125 O   0  0  0  0  0  0  0  0  0  0  0  0
   -3.0665    0.8144   -0.2119 C   0  0  0  0  0  0  0  0  0  0  0  0
   -2.7085    0.9565   -1.6697 C   0  0  0  0  0  0  0  0  0  0  0  0
   -1.9334    1.0457    0.7304 C   0  0  0  0  0  0  0  0  0  0  0  0
   -1.2646    2.3117    0.4312 N   0  0  0  0  0  1  0  0  0  0  0  0
   -0.8849   -0.0320    0.7322 C   0  0  0  0  0  0  0  0  0  0  0  0
    0.1701    0.4032    1.7538 C   0  0  0  0  0  0  0  0  0  0  0  0
    1.2834   -0.6120    1.8423 C   0  0  0  0  0  0  0  0  0  0  0  0
    1.9896   -0.8047    0.5243 C   0  0  0  0  0  0  0  0  0  0  0  0
    2.6127    0.4690    0.0184 C   0  0  0  0  0  0  0  0  0  0  0  0
    3.3074    0.3170   -1.2611 C   0  0  0  0  0  0  0  0  0  0  0  0
    2.8818    1.0334   -2.2531 N   0  0  0  0  0  2  0  0  0  0  0  0
    4.4475   -0.5818   -1.5150 C   0  0  0  0  0  0  0  0  0  0  0  0
    5.5673   -0.1561   -0.5712 C   0  0  0  0  0  0  0  0  0  0  0  0
    6.7447   -0.9887   -0.7460 N   0  0  0  0  0  1  0  0  0  0  0  0
  1  2  1  0
  2  3  1  0
  2  4  1  0
  4  5  1  0
  4  6  1  0
  6  7  1  0
  6  8  1  0
  8  9  1  0
  9 10  1  0
 10 11  1  0
 11 12  1  0
 12 13  1  0
 13 14  2  0
 13 15  1  0
 15 16  1  0
 16 17  1  0
M  RAD  3   7   3  14   2  17   3
M  END

