C/C(=N/NC1=CC=CC=C1)/C=N\O
     RDKit          3D

 13 13  0  0  0  0  0  0  0  0999 V2000
   -2.7408    1.5197    1.4450 C   0  0  0  0  0  0  0  0  0  0  0  0
   -2.1599    0.4024    0.5753 C   0  0  0  0  0  0  0  0  0  0  0  0
   -1.2158    0.7442   -0.1272 N   0  0  0  0  0  0  0  0  0  0  0  0
   -0.3957    0.2005   -1.0148 N   0  0  0  0  0  0  0  0  0  0  0  0
    0.9855    0.0431   -0.6511 C   0  0  0  0  0  0  0  0  0  0  0  0
    1.4700   -1.0180    0.0325 C   0  0  0  0  0  0  0  0  0  0  0  0
    2.8329   -1.0649    0.3296 C   0  0  0  0  0  0  0  0  0  0  0  0
    3.6641   -0.0471   -0.0669 C   0  0  0  0  0  0  0  0  0  0  0  0
    3.1832    1.0433   -0.7655 C   0  0  0  0  0  0  0  0  0  0  0  0
    1.8463    1.0828   -1.0540 C   0  0  0  0  0  0  0  0  0  0  0  0
   -2.7624   -0.8653    0.6754 C   0  0  0  0  0  0  0  0  0  0  0  0
   -2.4835   -1.9217    0.0814 N   0  0  0  0  0  0  0  0  0  0  0  0
   -1.5250   -2.0884   -0.8069 O   0  0  0  0  0  0  0  0  0  0  0  0
  1  2  1  0
  2  3  2  0
  3  4  1  0
  4  5  1  0
  5  6  2  0
  6  7  1  0
  7  8  2  0
  8  9  1  0
  9 10  2  0
  2 11  1  0
 11 12  2  0
 12 13  1  0
 10  5  1  0
M  END

