CC([NH2+]C=CC([O-])=O)C(=C)CC[NH3+]
     RDKit          3D

 13 12  0  0  0  0  0  0  0  0999 V2000
    0.2164   -2.0688    0.1386 C   0  0  0  0  0  0  0  0  0  0  0  0
    0.4057   -0.7487    0.8339 C   0  0  0  0  0  0  0  0  0  0  0  0
    1.6890   -0.1657    0.7062 N   0  0  0  0  0  4  0  0  0  0  0  0
    2.2439   -0.1855   -0.5721 C   0  0  0  0  0  0  0  0  0  0  0  0
    3.4107    0.3444   -0.8144 C   0  0  0  0  0  0  0  0  0  0  0  0
    4.2761    1.0019    0.1378 C   0  0  0  0  0  0  0  0  0  0  0  0
    3.8768    1.1113    1.4651 O   0  0  0  0  0  1  0  0  0  0  0  0
    5.3994    1.4835   -0.2172 O   0  0  0  0  0  0  0  0  0  0  0  0
   -0.7139    0.1431    0.4392 C   0  0  0  0  0  0  0  0  0  0  0  0
   -0.5141    1.2596   -0.2075 C   0  0  0  0  0  0  0  0  0  0  0  0
   -2.0907   -0.2872    0.7844 C   0  0  0  0  0  0  0  0  0  0  0  0
   -3.1594    0.5885    0.2129 C   0  0  0  0  0  0  0  0  0  0  0  0
   -3.1753    0.6187   -1.2205 N   0  0  0  0  0  4  0  0  0  0  0  0
  1  2  1  0
  2  3  1  0
  3  4  1  0
  4  5  2  3
  5  6  1  0
  6  7  1  0
  6  8  2  0
  2  9  1  0
  9 10  2  0
  9 11  1  0
 11 12  1  0
 12 13  1  0
M  CHG  3   3   1   7  -1  13   1
M  END

