CC(C)CN(C)C1=NC(=C(N=C1Cl)C(=O)NC(=N)N)N
     RDKit          3D

 20 20  0  0  0  0  0  0  0  0999 V2000
   -4.4952   -0.6158   -1.4291 C   0  0  0  0  0  0  0  0  0  0  0  0
   -3.0667   -0.2708   -0.9016 C   0  0  0  0  0  0  0  0  0  0  0  0
   -2.5439    0.7731   -1.8667 C   0  0  0  0  0  0  0  0  0  0  0  0
   -3.2572    0.2682    0.4714 C   0  0  0  0  0  0  0  0  0  0  0  0
   -2.1079    0.6488    1.2295 N   0  0  0  0  0  0  0  0  0  0  0  0
   -2.3865    1.3264    2.5096 C   0  0  0  0  0  0  0  0  0  0  0  0
   -0.7730    0.3931    0.8587 C   0  0  0  0  0  0  0  0  0  0  0  0
   -0.4842   -0.2674   -0.2875 N   0  0  0  0  0  0  0  0  0  0  0  0
    0.7580   -0.5576   -0.7030 C   0  0  0  0  0  0  0  0  0  0  0  0
    1.8278   -0.1677    0.0721 C   0  0  0  0  0  0  0  0  0  0  0  0
    1.5519    0.4836    1.2040 N   0  0  0  0  0  0  0  0  0  0  0  0
    0.2822    0.7826    1.6331 C   0  0  0  0  0  0  0  0  0  0  0  0
    0.1153    1.6458    3.1639 Cl  0  0  0  0  0  0  0  0  0  0  0  0
    3.1662   -0.4829   -0.3738 C   0  0  0  0  0  0  0  0  0  0  0  0
    3.3364   -1.0949   -1.4535 O   0  0  0  0  0  0  0  0  0  0  0  0
    4.2872   -0.1022    0.4099 N   0  0  0  0  0  0  0  0  0  0  0  0
    5.6213   -0.3917    0.0151 C   0  0  0  0  0  0  0  0  0  0  0  0
    6.6492   -0.0647    0.6925 N   0  0  0  0  0  0  0  0  0  0  0  0
    5.8020   -1.0949   -1.2173 N   0  0  0  0  0  0  0  0  0  0  0  0
    0.9535   -1.2589   -1.9292 N   0  0  0  0  0  0  0  0  0  0  0  0
  1  2  1  0
  2  3  1  0
  2  4  1  0
  4  5  1  0
  5  6  1  0
  5  7  1  0
  7  8  2  0
  8  9  1  0
  9 10  2  0
 10 11  1  0
 11 12  2  0
 12 13  1  0
 10 14  1  0
 14 15  2  0
 14 16  1  0
 16 17  1  0
 17 18  2  0
 17 19  1  0
  9 20  1  0
 12  7  1  0
M  END

