C1=CC(=NC2=C1C(=NC=C2)Br)Br
     RDKit          3D

 12 13  0  0  0  0  0  0  0  0999 V2000
    1.1561    1.0903    0.3413 C   0  0  0  0  0  0  0  0  0  0  0  0
    2.2499    0.2366    0.3432 C   0  0  0  0  0  0  0  0  0  0  0  0
    2.0765   -1.1086    0.0909 C   0  0  0  0  0  0  0  0  0  0  0  0
    0.8302   -1.5519   -0.1524 N   0  0  0  0  0  0  0  0  0  0  0  0
   -0.2498   -0.7288   -0.1577 C   0  0  0  0  0  0  0  0  0  0  0  0
   -0.1035    0.6124    0.0903 C   0  0  0  0  0  0  0  0  0  0  0  0
   -1.2319    1.4202    0.0759 C   0  0  0  0  0  0  0  0  0  0  0  0
   -2.4565    0.9231   -0.1736 N   0  0  0  0  0  0  0  0  0  0  0  0
   -2.6348   -0.3899   -0.4211 C   0  0  0  0  0  0  0  0  0  0  0  0
   -1.5218   -1.2060   -0.4102 C   0  0  0  0  0  0  0  0  0  0  0  0
   -0.9555    3.2761    0.4291 Br  0  0  0  0  0  0  0  0  0  0  0  0
    3.5860   -2.2895    0.0931 Br  0  0  0  0  0  0  0  0  0  0  0  0
  1  2  2  0
  2  3  1  0
  3  4  2  0
  4  5  1  0
  5  6  2  0
  6  7  1  0
  7  8  2  0
  8  9  1  0
  9 10  2  0
  7 11  1  0
  3 12  1  0
  6  1  1  0
 10  5  1  0
M  END

