CC1=NC2=C(CN(CC2)CC3CCCCC3)C(=O)N1
     RDKit          3D

 19 21  0  0  0  0  0  0  0  0999 V2000
    5.4568   -0.4800   -1.8520 C   0  0  0  0  0  0  0  0  0  0  0  0
    4.2987   -0.1415   -0.9712 C   0  0  0  0  0  0  0  0  0  0  0  0
    3.5957   -1.1041   -0.3297 N   0  0  0  0  0  0  0  0  0  0  0  0
    2.5571   -0.7792    0.4591 C   0  0  0  0  0  0  0  0  0  0  0  0
    2.2660    0.5868    0.5638 C   0  0  0  0  0  0  0  0  0  0  0  0
    1.0995    0.8897    1.4538 C   0  0  0  0  0  0  0  0  0  0  0  0
    0.0800   -0.0374    1.1059 N   0  0  0  0  0  0  0  0  0  0  0  0
    0.3191   -1.3952    1.3650 C   0  0  0  0  0  0  0  0  0  0  0  0
    1.7552   -1.7753    1.1832 C   0  0  0  0  0  0  0  0  0  0  0  0
   -1.2527    0.4320    1.2139 C   0  0  0  0  0  0  0  0  0  0  0  0
   -2.3026   -0.5571    0.8378 C   0  0  0  0  0  0  0  0  0  0  0  0
   -3.6690    0.0647    1.0000 C   0  0  0  0  0  0  0  0  0  0  0  0
   -3.7951    1.3346    0.2273 C   0  0  0  0  0  0  0  0  0  0  0  0
   -3.4712    1.1010   -1.2332 C   0  0  0  0  0  0  0  0  0  0  0  0
   -3.2785   -0.3643   -1.4694 C   0  0  0  0  0  0  0  0  0  0  0  0
   -2.1705   -0.9441   -0.6190 C   0  0  0  0  0  0  0  0  0  0  0  0
    2.9626    1.5627   -0.0739 C   0  0  0  0  0  0  0  0  0  0  0  0
    2.6360    2.7605    0.0740 O   0  0  0  0  0  0  0  0  0  0  0  0
    3.9993    1.1720   -0.8550 N   0  0  0  0  0  0  0  0  0  0  0  0
  1  2  1  0
  2  3  2  0
  3  4  1  0
  4  5  2  0
  5  6  1  0
  6  7  1  0
  7  8  1  0
  8  9  1  0
  7 10  1  0
 10 11  1  0
 11 12  1  0
 12 13  1  0
 13 14  1  0
 14 15  1  0
 15 16  1  0
  5 17  1  0
 17 18  2  0
 17 19  1  0
 19  2  1  0
  9  4  1  0
 16 11  1  0
M  END

