CN1CC2CCCNC2(C1)C#N
     RDKit          3D

 12 13  0  0  0  0  0  0  0  0999 V2000
    3.2710   -0.3073   -0.4672 C   0  0  0  0  0  0  0  0  0  0  0  0
    2.0283   -0.0767    0.2105 N   0  0  0  0  0  0  0  0  0  0  0  0
    1.1072   -1.2073    0.0937 C   0  0  0  0  0  0  0  0  0  0  0  0
   -0.1817   -0.6698   -0.4209 C   0  0  0  0  0  0  0  0  0  0  0  0
   -1.4066   -1.3174    0.0778 C   0  0  0  0  0  0  0  0  0  0  0  0
   -2.4605   -0.3137    0.4323 C   0  0  0  0  0  0  0  0  0  0  0  0
   -2.3972    0.9632   -0.3154 C   0  0  0  0  0  0  0  0  0  0  0  0
   -1.1067    1.5220   -0.5118 N   0  0  0  0  0  0  0  0  0  0  0  0
   -0.1098    0.7586    0.1363 C   0  0  0  0  0  0  0  0  0  0  0  0
    1.3066    1.0789   -0.2976 C   0  0  0  0  0  0  0  0  0  0  0  0
   -0.1474    0.7826    1.5782 C   0  0  0  0  0  0  0  0  0  0  0  0
   -0.1611    0.8129    2.7319 N   0  0  0  0  0  0  0  0  0  0  0  0
  1  2  1  0
  2  3  1  0
  3  4  1  0
  4  5  1  0
  5  6  1  0
  6  7  1  0
  7  8  1  0
  8  9  1  0
  9 10  1  0
  9 11  1  0
 11 12  3  0
 10  2  1  0
  9  4  1  0
M  END

