CCOC(=O)CNC(=O)C1=CC(=NN1)C2=CC=CN2
     RDKit          3D

 19 20  0  0  0  0  0  0  0  0999 V2000
    4.8781   -1.5369    1.2730 C   0  0  0  0  0  0  0  0  0  0  0  0
    5.5555   -1.0070    0.0083 C   0  0  0  0  0  0  0  0  0  0  0  0
    4.8741    0.1659   -0.3645 O   0  0  0  0  0  0  0  0  0  0  0  0
    3.5305    0.2001   -0.6754 C   0  0  0  0  0  0  0  0  0  0  0  0
    2.8479   -0.8431   -0.6359 O   0  0  0  0  0  0  0  0  0  0  0  0
    2.9132    1.4936   -1.0561 C   0  0  0  0  0  0  0  0  0  0  0  0
    1.5186    1.3761   -1.3502 N   0  0  0  0  0  0  0  0  0  0  0  0
    0.6143    0.9061   -0.3621 C   0  0  0  0  0  0  0  0  0  0  0  0
    1.0982    0.6032    0.7689 O   0  0  0  0  0  0  0  0  0  0  0  0
   -0.8116    0.7696   -0.6135 C   0  0  0  0  0  0  0  0  0  0  0  0
   -1.7511    0.3245    0.2836 C   0  0  0  0  0  0  0  0  0  0  0  0
   -2.9960    0.3345   -0.3225 C   0  0  0  0  0  0  0  0  0  0  0  0
   -2.7790    0.7853   -1.5712 N   0  0  0  0  0  0  0  0  0  0  0  0
   -1.4818    1.0419   -1.7386 N   0  0  0  0  0  0  0  0  0  0  0  0
   -4.2691   -0.0647    0.2831 C   0  0  0  0  0  0  0  0  0  0  0  0
   -4.3871   -0.5212    1.5945 C   0  0  0  0  0  0  0  0  0  0  0  0
   -5.7187   -0.7910    1.7857 C   0  0  0  0  0  0  0  0  0  0  0  0
   -6.3946   -0.5033    0.6122 C   0  0  0  0  0  0  0  0  0  0  0  0
   -5.4884   -0.0680   -0.2713 N   0  0  0  0  0  0  0  0  0  0  0  0
  1  2  1  0
  2  3  1  0
  3  4  1  0
  4  5  2  0
  4  6  1  0
  6  7  1  0
  7  8  1  0
  8  9  2  0
  8 10  1  0
 10 11  2  0
 11 12  1  0
 12 13  2  0
 13 14  1  0
 12 15  1  0
 15 16  2  0
 16 17  1  0
 17 18  2  0
 18 19  1  0
 14 10  1  0
 19 15  1  0
M  END

