CC(O)C(C)(CO)C(=O)NC(C)=CCC=O
     RDKit          3D

 16 15  0  0  0  0  0  0  0  0999 V2000
   -3.9494   -0.8736    0.5414 C   0  0  0  0  0  0  0  0  0  0  0  0
   -2.4627   -1.0617    0.6875 C   0  0  0  0  0  0  0  0  0  0  0  0
   -2.1484   -2.3106    0.1200 O   0  0  0  0  0  0  0  0  0  0  0  0
   -1.6751    0.0195   -0.0156 C   0  0  0  0  0  0  0  0  0  0  0  0
   -1.9522    0.0653   -1.4860 C   0  0  0  0  0  0  0  0  0  0  0  0
   -2.0874    1.3509    0.5735 C   0  0  0  0  0  0  0  0  0  0  0  0
   -3.4456    1.5849    0.3993 O   0  0  0  0  0  0  0  0  0  0  0  0
   -0.2361   -0.1595    0.2735 C   0  0  0  0  0  0  0  0  0  0  0  0
    0.1571   -1.1077    1.0093 O   0  0  0  0  0  0  0  0  0  0  0  0
    0.7515    0.7137   -0.2557 N   0  0  0  0  0  0  0  0  0  0  0  0
    2.1452    0.5378    0.0261 C   0  0  0  0  0  0  0  0  0  0  0  0
    2.5772    0.5956    1.4410 C   0  0  0  0  0  0  0  0  0  0  0  0
    3.0303    0.3309   -0.9214 C   0  0  0  0  0  0  0  0  0  0  0  0
    4.4549    0.1567   -0.5675 C   0  0  0  0  0  0  0  0  0  0  0  0
    4.9571   -1.1748   -1.0132 C   0  0  0  0  0  0  0  0  0  0  0  0
    4.1629   -1.9036   -1.5815 O   0  0  0  0  0  0  0  0  0  0  0  0
  1  2  1  0
  2  3  1  0
  2  4  1  0
  4  5  1  0
  4  6  1  0
  6  7  1  0
  4  8  1  0
  8  9  2  0
  8 10  1  0
 10 11  1  0
 11 12  1  0
 11 13  2  3
 13 14  1  0
 14 15  1  0
 15 16  2  0
M  END

