CC1=CC=C(C=C1)N2C(=O)C(=C(C=N2)NC3=CC=C(N3)C)Cl
     RDKit          3D

 22 24  0  0  0  0  0  0  0  0999 V2000
    6.9313   -0.8793   -0.4259 C   0  0  0  0  0  0  0  0  0  0  0  0
    5.4819   -0.5824   -0.5813 C   0  0  0  0  0  0  0  0  0  0  0  0
    4.5617   -1.3954    0.0333 C   0  0  0  0  0  0  0  0  0  0  0  0
    3.2232   -1.1424   -0.0950 C   0  0  0  0  0  0  0  0  0  0  0  0
    2.7730   -0.0729   -0.8394 C   0  0  0  0  0  0  0  0  0  0  0  0
    3.6793    0.7454   -1.4573 C   0  0  0  0  0  0  0  0  0  0  0  0
    5.0278    0.4878   -1.3261 C   0  0  0  0  0  0  0  0  0  0  0  0
    1.3595    0.1267   -0.9269 N   0  0  0  0  0  0  0  0  0  0  0  0
    0.7177    0.4101   -2.0565 C   0  0  0  0  0  0  0  0  0  0  0  0
    1.4142    0.5044   -3.0999 O   0  0  0  0  0  0  0  0  0  0  0  0
   -0.6335    0.6036   -2.1584 C   0  0  0  0  0  0  0  0  0  0  0  0
   -1.3991    0.4940   -0.9788 C   0  0  0  0  0  0  0  0  0  0  0  0
   -0.7178    0.2005    0.1845 C   0  0  0  0  0  0  0  0  0  0  0  0
    0.6420    0.0263    0.1683 N   0  0  0  0  0  0  0  0  0  0  0  0
   -2.7624    0.7226   -1.0956 N   0  0  0  0  0  0  0  0  0  0  0  0
   -3.8452    0.5375   -0.2092 C   0  0  0  0  0  0  0  0  0  0  0  0
   -5.1743    0.8637   -0.5864 C   0  0  0  0  0  0  0  0  0  0  0  0
   -6.0143    0.5579    0.4563 C   0  0  0  0  0  0  0  0  0  0  0  0
   -5.2071    0.0595    1.4363 C   0  0  0  0  0  0  0  0  0  0  0  0
   -3.9206    0.0537    1.0247 N   0  0  0  0  0  0  0  0  0  0  0  0
   -5.6788   -0.4097    2.7665 C   0  0  0  0  0  0  0  0  0  0  0  0
   -1.3771    0.9682   -3.6951 Cl  0  0  0  0  0  0  0  0  0  0  0  0
  1  2  1  0
  2  3  2  0
  3  4  1  0
  4  5  2  0
  5  6  1  0
  6  7  2  0
  5  8  1  0
  8  9  1  0
  9 10  2  0
  9 11  1  0
 11 12  2  0
 12 13  1  0
 13 14  2  0
 12 15  1  0
 15 16  1  0
 16 17  2  0
 17 18  1  0
 18 19  2  0
 19 20  1  0
 19 21  1  0
 11 22  1  0
  7  2  1  0
 14  8  1  0
 20 16  1  0
M  END

