CC1=CNC2=CC(=O)NC=C12
     RDKit          3D

 11 12  0  0  0  0  0  0  0  0999 V2000
   -2.4777   -1.0543   -0.3168 C   0  0  0  0  0  0  0  0  0  0  0  0
   -1.4464   -0.0092   -0.1006 C   0  0  0  0  0  0  0  0  0  0  0  0
   -1.6260    1.3489    0.0815 C   0  0  0  0  0  0  0  0  0  0  0  0
   -0.4243    1.9173    0.2407 N   0  0  0  0  0  0  0  0  0  0  0  0
    0.5604    1.0048    0.1746 C   0  0  0  0  0  0  0  0  0  0  0  0
    1.9474    1.0781    0.2753 C   0  0  0  0  0  0  0  0  0  0  0  0
    2.6941   -0.0706    0.1600 C   0  0  0  0  0  0  0  0  0  0  0  0
    3.9648    0.0004    0.2528 O   0  0  0  0  0  0  0  0  0  0  0  0
    2.0624   -1.2249   -0.0458 N   0  0  0  0  0  0  0  0  0  0  0  0
    0.7259   -1.3350   -0.1484 C   0  0  0  0  0  0  0  0  0  0  0  0
   -0.0735   -0.2019   -0.0388 C   0  0  0  0  0  0  0  0  0  0  0  0
  1  2  1  0
  2  3  2  0
  3  4  1  0
  4  5  1  0
  5  6  2  0
  6  7  1  0
  7  8  2  0
  7  9  1  0
  9 10  1  0
 10 11  2  0
 11  2  1  0
 11  5  1  0
M  END

