C1=CC=C2C(=C1)C(=C(N2)O)N=NC3=C(C=CC=N3)Cl
     RDKit          3D

 19 21  0  0  0  0  0  0  0  0999 V2000
   -3.9211    0.2680   -1.3995 C   0  0  0  0  0  0  0  0  0  0  0  0
   -4.2775   -0.6313   -0.4240 C   0  0  0  0  0  0  0  0  0  0  0  0
   -3.4074   -0.9022    0.6292 C   0  0  0  0  0  0  0  0  0  0  0  0
   -2.1688   -0.2746    0.7176 C   0  0  0  0  0  0  0  0  0  0  0  0
   -1.8163    0.6279   -0.2652 C   0  0  0  0  0  0  0  0  0  0  0  0
   -2.6831    0.8900   -1.3037 C   0  0  0  0  0  0  0  0  0  0  0  0
   -0.5519    1.0742    0.0958 C   0  0  0  0  0  0  0  0  0  0  0  0
   -0.1693    0.4506    1.2614 C   0  0  0  0  0  0  0  0  0  0  0  0
   -1.1741   -0.3657    1.6174 N   0  0  0  0  0  0  0  0  0  0  0  0
    1.0566    0.6568    1.9267 O   0  0  0  0  0  0  0  0  0  0  0  0
    0.1751    2.0227   -0.6602 N   0  0  0  0  0  0  0  0  0  0  0  0
    1.3736    1.8727   -1.0359 N   0  0  0  0  0  0  0  0  0  0  0  0
    2.1608    0.7286   -0.7514 C   0  0  0  0  0  0  0  0  0  0  0  0
    3.4336    0.9006   -0.2768 C   0  0  0  0  0  0  0  0  0  0  0  0
    4.2470   -0.1698    0.0180 C   0  0  0  0  0  0  0  0  0  0  0  0
    3.6987   -1.4157   -0.1950 C   0  0  0  0  0  0  0  0  0  0  0  0
    2.4175   -1.5849   -0.6728 C   0  0  0  0  0  0  0  0  0  0  0  0
    1.6867   -0.4980   -0.9367 N   0  0  0  0  0  0  0  0  0  0  0  0
    4.0408    2.5292   -0.0391 Cl  0  0  0  0  0  0  0  0  0  0  0  0
  1  2  2  0
  2  3  1  0
  3  4  2  0
  4  5  1  0
  5  6  2  0
  5  7  1  0
  7  8  2  0
  8  9  1  0
  8 10  1  0
  7 11  1  0
 11 12  2  3
 12 13  1  0
 13 14  2  0
 14 15  1  0
 15 16  2  0
 16 17  1  0
 17 18  2  0
 14 19  1  0
  6  1  1  0
  9  4  1  0
 18 13  1  0
M  END

