C1=CN2C(=CC=N2)C(=C1)C(=O)Cl
     RDKit          3D

 12 13  0  0  0  0  0  0  0  0999 V2000
   -1.2144   -1.8165   -0.2596 C   0  0  0  0  0  0  0  0  0  0  0  0
    0.1510   -1.9616   -0.1828 C   0  0  0  0  0  0  0  0  0  0  0  0
    0.9979   -0.9305   -0.0250 N   0  0  0  0  0  0  0  0  0  0  0  0
    0.4645    0.3089    0.0613 C   0  0  0  0  0  0  0  0  0  0  0  0
    1.5536    1.1492    0.2166 C   0  0  0  0  0  0  0  0  0  0  0  0
    2.7213    0.4107    0.2217 C   0  0  0  0  0  0  0  0  0  0  0  0
    2.3358   -0.8640    0.0707 N   0  0  0  0  0  0  0  0  0  0  0  0
   -0.9049    0.5161   -0.0095 C   0  0  0  0  0  0  0  0  0  0  0  0
   -1.7780   -0.5648   -0.1740 C   0  0  0  0  0  0  0  0  0  0  0  0
   -1.4690    1.8372    0.0828 C   0  0  0  0  0  0  0  0  0  0  0  0
   -0.7382    2.8440    0.2305 O   0  0  0  0  0  0  0  0  0  0  0  0
   -3.2020    2.0886   -0.0080 Cl  0  0  0  0  0  0  0  0  0  0  0  0
  1  2  2  0
  2  3  1  0
  3  4  1  0
  4  5  2  0
  5  6  1  0
  6  7  2  0
  4  8  1  0
  8  9  2  0
  8 10  1  0
 10 11  2  0
 10 12  1  0
  9  1  1  0
  7  3  1  0
M  END

