CC1=C(C2=C(C=C1)NC(=N2)C3=NON=C3N)C
     RDKit          3D

 17 19  0  0  0  0  0  0  0  0999 V2000
    3.6185   -1.0027    1.6260 C   0  0  0  0  0  0  0  0  0  0  0  0
    2.6131   -0.4551    0.6793 C   0  0  0  0  0  0  0  0  0  0  0  0
    1.2554   -0.5373    0.9077 C   0  0  0  0  0  0  0  0  0  0  0  0
    0.3525   -0.0159    0.0031 C   0  0  0  0  0  0  0  0  0  0  0  0
    0.7757    0.5997   -1.1498 C   0  0  0  0  0  0  0  0  0  0  0  0
    2.1356    0.6775   -1.3701 C   0  0  0  0  0  0  0  0  0  0  0  0
    3.0427    0.1581   -0.4696 C   0  0  0  0  0  0  0  0  0  0  0  0
   -0.3339    0.9900   -1.8021 N   0  0  0  0  0  0  0  0  0  0  0  0
   -1.4341    0.6462   -1.1090 C   0  0  0  0  0  0  0  0  0  0  0  0
   -0.9927    0.0329   -0.0095 N   0  0  0  0  0  0  0  0  0  0  0  0
   -2.8225    0.9094   -1.5124 C   0  0  0  0  0  0  0  0  0  0  0  0
   -3.2469    1.5301   -2.6264 N   0  0  0  0  0  0  0  0  0  0  0  0
   -4.5666    1.5645   -2.6140 O   0  0  0  0  0  0  0  0  0  0  0  0
   -5.0110    0.9903   -1.5357 N   0  0  0  0  0  0  0  0  0  0  0  0
   -3.9441    0.5583   -0.8045 C   0  0  0  0  0  0  0  0  0  0  0  0
   -4.0224   -0.1128    0.4308 N   0  0  0  0  0  0  0  0  0  0  0  0
    0.7936   -1.2022    2.1535 C   0  0  0  0  0  0  0  0  0  0  0  0
  1  2  1  0
  2  3  2  0
  3  4  1  0
  4  5  2  0
  5  6  1  0
  6  7  2  0
  5  8  1  0
  8  9  1  0
  9 10  2  0
  9 11  1  0
 11 12  2  0
 12 13  1  0
 13 14  1  0
 14 15  2  0
 15 16  1  0
  3 17  1  0
  7  2  1  0
 10  4  1  0
 15 11  1  0
M  END

