CCOC(=O)C1C(=O)CON1
     RDKit          3D

 11 11  0  0  0  0  0  0  0  0999 V2000
   -3.1759    0.4935    0.1698 C   0  0  0  0  0  0  0  0  0  0  0  0
   -2.4844   -0.8553    0.1973 C   0  0  0  0  0  0  0  0  0  0  0  0
   -1.1539   -0.6309    0.6182 O   0  0  0  0  0  0  0  0  0  0  0  0
   -0.2603    0.1699   -0.0474 C   0  0  0  0  0  0  0  0  0  0  0  0
   -0.6261    0.7466   -1.0943 O   0  0  0  0  0  0  0  0  0  0  0  0
    1.0923    0.3222    0.4910 C   0  0  0  0  0  0  0  0  0  0  0  0
    1.8971   -0.9083    0.4496 C   0  0  0  0  0  0  0  0  0  0  0  0
    1.5086   -2.0266    0.6131 O   0  0  0  0  0  0  0  0  0  0  0  0
    3.2678   -0.4556    0.1653 C   0  0  0  0  0  0  0  0  0  0  0  0
    3.1954    0.9214   -0.0584 O   0  0  0  0  0  0  0  0  0  0  0  0
    1.9131    1.2084   -0.3399 N   0  0  0  0  0  0  0  0  0  0  0  0
  1  2  1  0
  2  3  1  0
  3  4  1  0
  4  5  2  0
  4  6  1  0
  6  7  1  0
  7  8  2  0
  7  9  1  0
  9 10  1  0
 10 11  1  0
 11  6  1  0
M  END

