CC(=O)NN=C(N)C=NN=C
     RDKit          3D

 11 10  0  0  0  0  0  0  0  0999 V2000
   -3.6067    1.5952    0.3872 C   0  0  0  0  0  0  0  0  0  0  0  0
   -2.9606    0.2114    0.6007 C   0  0  0  0  0  0  0  0  0  0  0  0
   -3.8366   -0.6705    0.6854 O   0  0  0  0  0  0  0  0  0  0  0  0
   -1.6404    0.1126    0.6653 N   0  0  0  0  0  0  0  0  0  0  0  0
   -0.3452    0.0157    0.7288 N   0  0  0  0  0  0  0  0  0  0  0  0
    0.4893   -0.5894   -0.0453 C   0  0  0  0  0  0  0  0  0  0  0  0
   -0.0611   -1.2721   -1.1551 N   0  0  0  0  0  0  0  0  0  0  0  0
    1.9027   -0.6131    0.1605 C   0  0  0  0  0  0  0  0  0  0  0  0
    2.4286    0.0051    1.1810 N   0  0  0  0  0  0  0  0  0  0  0  0
    3.7973   -0.0072    1.3851 N   0  0  0  0  0  0  0  0  0  0  0  0
    4.6763    0.2915    0.4955 C   0  0  0  0  0  0  0  0  0  0  0  0
  1  2  1  0
  2  3  2  0
  2  4  1  0
  4  5  1  0
  5  6  2  3
  6  7  1  0
  6  8  1  0
  8  9  2  3
  9 10  1  0
 10 11  2  0
M  END

