CC(=O)ON=C(N)C=CC=C
     RDKit          3D

 11 10  0  0  0  0  0  0  0  0999 V2000
    3.7646   -1.3618   -0.2987 C   0  0  0  0  0  0  0  0  0  0  0  0
    2.2921   -1.1499   -0.2030 C   0  0  0  0  0  0  0  0  0  0  0  0
    1.4809   -2.0963   -0.3829 O   0  0  0  0  0  0  0  0  0  0  0  0
    1.7388    0.0910    0.0871 O   0  0  0  0  0  0  0  0  0  0  0  0
    0.3830    0.2850    0.1750 N   0  0  0  0  0  0  0  0  0  0  0  0
   -0.1756    1.2152    0.8320 C   0  0  0  0  0  0  0  0  0  0  0  0
    0.7237    2.1108    1.5213 N   0  0  0  0  0  0  0  0  0  0  0  0
   -1.5931    1.4233    0.9278 C   0  0  0  0  0  0  0  0  0  0  0  0
   -2.5390    0.7083    0.3684 C   0  0  0  0  0  0  0  0  0  0  0  0
   -2.3771   -0.4486   -0.4697 C   0  0  0  0  0  0  0  0  0  0  0  0
   -3.4369   -1.0587   -0.9571 C   0  0  0  0  0  0  0  0  0  0  0  0
  1  2  1  0
  2  3  2  0
  2  4  1  0
  4  5  1  0
  5  6  2  3
  6  7  1  0
  6  8  1  0
  8  9  2  3
  9 10  1  0
 10 11  2  0
M  END

