C1CNC2=C(N=NN2C1)C(=O)C3=CC=CC=C3
     RDKit          3D

 17 19  0  0  0  0  0  0  0  0999 V2000
   -4.2377   -0.4704    0.1327 C   0  0  0  0  0  0  0  0  0  0  0  0
   -3.4859   -0.5838   -1.1508 C   0  0  0  0  0  0  0  0  0  0  0  0
   -2.2120    0.1377   -1.1291 N   0  0  0  0  0  0  0  0  0  0  0  0
   -1.4545    0.1694    0.0919 C   0  0  0  0  0  0  0  0  0  0  0  0
   -0.0953    0.1682    0.3505 C   0  0  0  0  0  0  0  0  0  0  0  0
    0.0093    0.1711    1.6909 N   0  0  0  0  0  0  0  0  0  0  0  0
   -1.1935    0.1764    2.2248 N   0  0  0  0  0  0  0  0  0  0  0  0
   -2.1167    0.1767    1.2456 N   0  0  0  0  0  0  0  0  0  0  0  0
   -3.5475    0.2066    1.2540 C   0  0  0  0  0  0  0  0  0  0  0  0
    0.9316    0.1991   -0.6680 C   0  0  0  0  0  0  0  0  0  0  0  0
    0.5601    0.2736   -1.8886 O   0  0  0  0  0  0  0  0  0  0  0  0
    2.3555    0.1548   -0.4442 C   0  0  0  0  0  0  0  0  0  0  0  0
    2.8808   -0.3949    0.7086 C   0  0  0  0  0  0  0  0  0  0  0  0
    4.2332   -0.4523    0.9521 C   0  0  0  0  0  0  0  0  0  0  0  0
    5.0961    0.0606    0.0065 C   0  0  0  0  0  0  0  0  0  0  0  0
    4.5825    0.6119   -1.1501 C   0  0  0  0  0  0  0  0  0  0  0  0
    3.2359    0.6683   -1.3917 C   0  0  0  0  0  0  0  0  0  0  0  0
  1  2  1  0
  2  3  1  0
  3  4  1  0
  4  5  2  0
  5  6  1  0
  6  7  2  0
  7  8  1  0
  8  9  1  0
  5 10  1  0
 10 11  2  0
 10 12  1  0
 12 13  2  0
 13 14  1  0
 14 15  2  0
 15 16  1  0
 16 17  2  0
  9  1  1  0
  8  4  1  0
 17 12  1  0
M  END

