CCC1=CC(=O)NC(=N1)CN(C)CC(=O)OCC
     RDKit          3D

 18 18  0  0  0  0  0  0  0  0999 V2000
   -5.9458    0.6424   -0.0802 C   0  0  0  0  0  0  0  0  0  0  0  0
   -4.5951    1.2090    0.2669 C   0  0  0  0  0  0  0  0  0  0  0  0
   -3.4834    0.3665   -0.2218 C   0  0  0  0  0  0  0  0  0  0  0  0
   -3.6791   -0.8045   -0.9232 C   0  0  0  0  0  0  0  0  0  0  0  0
   -2.5785   -1.5475   -1.3518 C   0  0  0  0  0  0  0  0  0  0  0  0
   -2.7913   -2.6063   -1.9862 O   0  0  0  0  0  0  0  0  0  0  0  0
   -1.3101   -1.1501   -1.0976 N   0  0  0  0  0  0  0  0  0  0  0  0
   -1.1588   -0.0042   -0.4118 C   0  0  0  0  0  0  0  0  0  0  0  0
   -2.2042    0.7191    0.0058 N   0  0  0  0  0  0  0  0  0  0  0  0
    0.2565    0.4251   -0.1389 C   0  0  0  0  0  0  0  0  0  0  0  0
    0.7730   -0.1443    1.0573 N   0  0  0  0  0  0  0  0  0  0  0  0
    0.8309   -1.5809    1.0758 C   0  0  0  0  0  0  0  0  0  0  0  0
    2.0304    0.4613    1.3913 C   0  0  0  0  0  0  0  0  0  0  0  0
    3.1245    0.1335    0.4390 C   0  0  0  0  0  0  0  0  0  0  0  0
    2.9696   -0.6162   -0.5627 O   0  0  0  0  0  0  0  0  0  0  0  0
    4.4084    0.6483    0.6049 O   0  0  0  0  0  0  0  0  0  0  0  0
    5.4827    0.3874   -0.2460 C   0  0  0  0  0  0  0  0  0  0  0  0
    5.2625    0.8248   -1.6735 C   0  0  0  0  0  0  0  0  0  0  0  0
  1  2  1  0
  2  3  1  0
  3  4  2  0
  4  5  1  0
  5  6  2  0
  5  7  1  0
  7  8  1  0
  8  9  2  0
  8 10  1  0
 10 11  1  0
 11 12  1  0
 11 13  1  0
 13 14  1  0
 14 15  2  0
 14 16  1  0
 16 17  1  0
 17 18  1  0
  9  3  1  0
M  END

