CC1=CC=C(C=C1)S(=O)(=O)OS(C)(C)C2=CC=C(C3=CC=CC=C32)O
     RDKit          3D

 25 27  0  0  0  0  0  0  0  0999 V2000
    7.1981   -0.7685    1.1719 C   0  0  0  0  0  0  0  0  0  0  0  0
    5.8622   -0.2901    0.7525 C   0  0  0  0  0  0  0  0  0  0  0  0
    5.4977   -0.3696   -0.5572 C   0  0  0  0  0  0  0  0  0  0  0  0
    4.2448    0.0742   -0.9784 C   0  0  0  0  0  0  0  0  0  0  0  0
    3.3426    0.6037   -0.0870 C   0  0  0  0  0  0  0  0  0  0  0  0
    3.6993    0.6887    1.2354 C   0  0  0  0  0  0  0  0  0  0  0  0
    4.9508    0.2455    1.6567 C   0  0  0  0  0  0  0  0  0  0  0  0
    1.7967    1.1420   -0.6597 S   0  0  0  0  0  6  0  0  0  0  0  0
    1.3937    2.3353    0.1807 O   0  0  0  0  0  0  0  0  0  0  0  0
    1.9251    1.6525   -2.0791 O   0  0  0  0  0  0  0  0  0  0  0  0
    0.6344   -0.0590   -0.6285 O   0  0  0  0  0  0  0  0  0  0  0  0
   -0.8591    0.7204   -0.3457 S   0  0  0  0  0  4  0  0  0  0  0  0
   -0.7620    1.3845    1.1426 C   0  0  0  0  0  0  0  0  0  0  0  0
   -1.0519    1.7627   -1.6326 C   0  0  0  0  0  0  0  0  0  0  0  0
   -2.0476   -0.5306   -0.4579 C   0  0  0  0  0  0  0  0  0  0  0  0
   -1.6928   -1.8374   -0.7271 C   0  0  0  0  0  0  0  0  0  0  0  0
   -2.6752   -2.8203   -0.8106 C   0  0  0  0  0  0  0  0  0  0  0  0
   -4.0017   -2.4982   -0.6262 C   0  0  0  0  0  0  0  0  0  0  0  0
   -4.3590   -1.1963   -0.3576 C   0  0  0  0  0  0  0  0  0  0  0  0
   -5.6805   -0.8919   -0.1769 C   0  0  0  0  0  0  0  0  0  0  0  0
   -6.0895    0.4127    0.0971 C   0  0  0  0  0  0  0  0  0  0  0  0
   -5.1304    1.3863    0.1811 C   0  0  0  0  0  0  0  0  0  0  0  0
   -3.7975    1.0616   -0.0043 C   0  0  0  0  0  0  0  0  0  0  0  0
   -3.3677   -0.2162   -0.2755 C   0  0  0  0  0  0  0  0  0  0  0  0
   -4.9637   -3.5157   -0.7178 O   0  0  0  0  0  0  0  0  0  0  0  0
  1  2  1  0
  2  3  2  0
  3  4  1  0
  4  5  2  0
  5  6  1  0
  6  7  2  0
  5  8  1  0
  8  9  2  0
  8 10  2  0
  8 11  1  0
 11 12  1  0
 12 13  1  0
 12 14  1  0
 12 15  1  0
 15 16  2  0
 16 17  1  0
 17 18  2  0
 18 19  1  0
 19 20  2  0
 20 21  1  0
 21 22  2  0
 22 23  1  0
 23 24  2  0
 18 25  1  0
  7  2  1  0
 24 15  1  0
 24 19  1  0
M  END

