C1=CC(=C(C(=C1)Cl)CC(=O)NC(=N)N)Cl
     RDKit          3D

 15 15  0  0  0  0  0  0  0  0999 V2000
   -3.4569    1.5557   -0.0270 C   0  0  0  0  0  0  0  0  0  0  0  0
   -3.1441    0.4695    0.7632 C   0  0  0  0  0  0  0  0  0  0  0  0
   -2.0732   -0.3304    0.4197 C   0  0  0  0  0  0  0  0  0  0  0  0
   -1.3136   -0.0432   -0.7161 C   0  0  0  0  0  0  0  0  0  0  0  0
   -1.6370    1.0476   -1.4986 C   0  0  0  0  0  0  0  0  0  0  0  0
   -2.7174    1.8519   -1.1494 C   0  0  0  0  0  0  0  0  0  0  0  0
   -0.6511    1.3899   -2.9166 Cl  0  0  0  0  0  0  0  0  0  0  0  0
   -0.1456   -0.8772   -1.1253 C   0  0  0  0  0  0  0  0  0  0  0  0
    1.1075   -0.5452   -0.4259 C   0  0  0  0  0  0  0  0  0  0  0  0
    1.6537    0.5706   -0.7649 O   0  0  0  0  0  0  0  0  0  0  0  0
    1.7614   -1.3033    0.5583 N   0  0  0  0  0  0  0  0  0  0  0  0
    2.9787   -0.8914    1.1454 C   0  0  0  0  0  0  0  0  0  0  0  0
    3.5153   -1.6351    2.0789 N   0  0  0  0  0  0  0  0  0  0  0  0
    3.6453    0.2526    0.7117 N   0  0  0  0  0  0  0  0  0  0  0  0
   -1.6495   -1.7303    1.3828 Cl  0  0  0  0  0  0  0  0  0  0  0  0
  1  2  2  0
  2  3  1  0
  3  4  2  0
  4  5  1  0
  5  6  2  0
  5  7  1  0
  4  8  1  0
  8  9  1  0
  9 10  2  0
  9 11  1  0
 11 12  1  0
 12 13  2  0
 12 14  1  0
  3 15  1  0
  6  1  1  0
M  END

