CCN1C=CN=C1CC2=NC3=C(C=C(C=C3)C)C(=O)N2
     RDKit          3D

 20 22  0  0  0  0  0  0  0  0999 V2000
    4.3455   -1.3481   -0.6068 C   0  0  0  0  0  0  0  0  0  0  0  0
    3.1690   -0.5016   -1.0461 C   0  0  0  0  0  0  0  0  0  0  0  0
    3.1461    0.7759   -0.3648 N   0  0  0  0  0  0  0  0  0  0  0  0
    3.7393    1.9255   -0.7618 C   0  0  0  0  0  0  0  0  0  0  0  0
    3.4593    2.8776    0.1890 C   0  0  0  0  0  0  0  0  0  0  0  0
    2.7090    2.2780    1.1275 N   0  0  0  0  0  0  0  0  0  0  0  0
    2.5059    0.9769    0.7998 C   0  0  0  0  0  0  0  0  0  0  0  0
    1.7128   -0.0263    1.5940 C   0  0  0  0  0  0  0  0  0  0  0  0
    0.2680    0.0170    1.2570 C   0  0  0  0  0  0  0  0  0  0  0  0
   -0.2706   -0.7395    0.2993 N   0  0  0  0  0  0  0  0  0  0  0  0
   -1.5648   -0.7280   -0.0319 C   0  0  0  0  0  0  0  0  0  0  0  0
   -2.4197    0.1118    0.6455 C   0  0  0  0  0  0  0  0  0  0  0  0
   -3.7578    0.1610    0.3432 C   0  0  0  0  0  0  0  0  0  0  0  0
   -4.2526   -0.6334   -0.6435 C   0  0  0  0  0  0  0  0  0  0  0  0
   -3.4229   -1.4816   -1.3367 C   0  0  0  0  0  0  0  0  0  0  0  0
   -2.0607   -1.5331   -1.0304 C   0  0  0  0  0  0  0  0  0  0  0  0
   -5.6907   -0.6070   -0.9969 C   0  0  0  0  0  0  0  0  0  0  0  0
   -1.8533    0.8955    1.6397 C   0  0  0  0  0  0  0  0  0  0  0  0
   -2.6470    1.6627    2.2552 O   0  0  0  0  0  0  0  0  0  0  0  0
   -0.5586    0.8389    1.9226 N   0  0  0  0  0  0  0  0  0  0  0  0
  1  2  1  0
  2  3  1  0
  3  4  1  0
  4  5  2  0
  5  6  1  0
  6  7  2  0
  7  8  1  0
  8  9  1  0
  9 10  2  0
 10 11  1  0
 11 12  2  0
 12 13  1  0
 13 14  2  0
 14 15  1  0
 15 16  2  0
 14 17  1  0
 12 18  1  0
 18 19  2  0
 18 20  1  0
  7  3  1  0
 20  9  1  0
 16 11  1  0
M  END

