CCC1=C(C(=O)OC(=C1)/C=C/C)O
     RDKit          3D

 13 13  0  0  0  0  0  0  0  0999 V2000
   -3.1829   -1.0095    0.7098 C   0  0  0  0  0  0  0  0  0  0  0  0
   -2.4619   -0.5281   -0.5239 C   0  0  0  0  0  0  0  0  0  0  0  0
   -1.3101    0.3416   -0.2120 C   0  0  0  0  0  0  0  0  0  0  0  0
   -1.4796    1.6488    0.1744 C   0  0  0  0  0  0  0  0  0  0  0  0
   -0.3424    2.4223    0.4574 C   0  0  0  0  0  0  0  0  0  0  0  0
   -0.5019    3.6175    0.8105 O   0  0  0  0  0  0  0  0  0  0  0  0
    0.8458    1.8887    0.3487 O   0  0  0  0  0  0  0  0  0  0  0  0
    1.0828    0.6464   -0.0153 C   0  0  0  0  0  0  0  0  0  0  0  0
   -0.0265   -0.1442   -0.3022 C   0  0  0  0  0  0  0  0  0  0  0  0
    2.4395    0.1567   -0.1036 C   0  0  0  0  0  0  0  0  0  0  0  0
    2.7678   -1.0492   -0.4532 C   0  0  0  0  0  0  0  0  0  0  0  0
    4.1907   -1.4758   -0.5196 C   0  0  0  0  0  0  0  0  0  0  0  0
   -2.7581    2.1573    0.2713 O   0  0  0  0  0  0  0  0  0  0  0  0
  1  2  1  0
  2  3  1  0
  3  4  2  0
  4  5  1  0
  5  6  2  0
  5  7  1  0
  7  8  1  0
  8  9  2  0
  8 10  1  0
 10 11  2  0
 11 12  1  0
  4 13  1  0
  9  3  1  0
M  END

