C1CC(C1)COC2=CC(=C(C=C2C(=O)O)Br)OCC3=CC=CC=C3
     RDKit          3D

 24 26  0  0  0  0  0  0  0  0999 V2000
    5.4116   -1.9587    0.7674 C   0  0  0  0  0  0  0  0  0  0  0  0
    4.6577   -1.1015   -0.2625 C   0  0  0  0  0  0  0  0  0  0  0  0
    3.8117   -0.6534    0.9126 C   0  0  0  0  0  0  0  0  0  0  0  0
    4.0624   -2.0314    1.4958 C   0  0  0  0  0  0  0  0  0  0  0  0
    2.3739   -0.3555    0.5820 C   0  0  0  0  0  0  0  0  0  0  0  0
    2.3584    0.6791   -0.3752 O   0  0  0  0  0  0  0  0  0  0  0  0
    1.1871    1.2032   -0.9048 C   0  0  0  0  0  0  0  0  0  0  0  0
   -0.0629    0.7317   -0.5169 C   0  0  0  0  0  0  0  0  0  0  0  0
   -1.2026    1.2998   -1.0860 C   0  0  0  0  0  0  0  0  0  0  0  0
   -1.1031    2.3097   -2.0159 C   0  0  0  0  0  0  0  0  0  0  0  0
    0.1634    2.7544   -2.3783 C   0  0  0  0  0  0  0  0  0  0  0  0
    1.2893    2.2133   -1.8348 C   0  0  0  0  0  0  0  0  0  0  0  0
    2.6101    2.6894   -2.2241 C   0  0  0  0  0  0  0  0  0  0  0  0
    2.7275    3.6098   -3.0706 O   0  0  0  0  0  0  0  0  0  0  0  0
    3.7672    2.1570   -1.6873 O   0  0  0  0  0  0  0  0  0  0  0  0
   -2.6910    3.0321   -2.7449 Br  0  0  0  0  0  0  0  0  0  0  0  0
   -2.4339    0.8079   -0.6786 O   0  0  0  0  0  0  0  0  0  0  0  0
   -2.5813   -0.2156    0.2621 C   0  0  0  0  0  0  0  0  0  0  0  0
   -4.0141   -0.5194    0.4879 C   0  0  0  0  0  0  0  0  0  0  0  0
   -4.7605    0.1170    1.4517 C   0  0  0  0  0  0  0  0  0  0  0  0
   -6.0989   -0.2022    1.6248 C   0  0  0  0  0  0  0  0  0  0  0  0
   -6.6977   -1.1602    0.8343 C   0  0  0  0  0  0  0  0  0  0  0  0
   -5.9650   -1.8072   -0.1355 C   0  0  0  0  0  0  0  0  0  0  0  0
   -4.6167   -1.4726   -0.2960 C   0  0  0  0  0  0  0  0  0  0  0  0
  1  2  1  0
  2  3  1  0
  3  4  1  0
  3  5  1  0
  5  6  1  0
  6  7  1  0
  7  8  2  0
  8  9  1  0
  9 10  2  0
 10 11  1  0
 11 12  2  0
 12 13  1  0
 13 14  2  0
 13 15  1  0
 10 16  1  0
  9 17  1  0
 17 18  1  0
 18 19  1  0
 19 20  2  0
 20 21  1  0
 21 22  2  0
 22 23  1  0
 23 24  2  0
  4  1  1  0
 12  7  1  0
 24 19  1  0
M  END

