CCN(CC)CCSC1=NNC(=N1)C2=CC=CC=C2O
     RDKit          3D

 20 21  0  0  0  0  0  0  0  0999 V2000
   -2.8902   -1.4411    0.4780 C   0  0  0  0  0  0  0  0  0  0  0  0
   -3.7689   -0.2686    0.8547 C   0  0  0  0  0  0  0  0  0  0  0  0
   -3.5882    0.7864   -0.0692 N   0  0  0  0  0  0  0  0  0  0  0  0
   -4.3841    1.9571    0.1691 C   0  0  0  0  0  0  0  0  0  0  0  0
   -5.8408    1.7736   -0.0457 C   0  0  0  0  0  0  0  0  0  0  0  0
   -2.2132    1.1858   -0.2454 C   0  0  0  0  0  0  0  0  0  0  0  0
   -1.6655    1.8525    1.0032 C   0  0  0  0  0  0  0  0  0  0  0  0
    0.0645    2.3068    0.6505 S   0  0  0  0  0  0  0  0  0  0  0  0
    1.0355    0.8263    0.4491 C   0  0  0  0  0  0  0  0  0  0  0  0
    0.6371   -0.4593    0.5304 N   0  0  0  0  0  0  0  0  0  0  0  0
    1.6693   -1.2623    0.3199 N   0  0  0  0  0  0  0  0  0  0  0  0
    2.7546   -0.5008    0.0986 C   0  0  0  0  0  0  0  0  0  0  0  0
    2.3495    0.7611    0.1810 N   0  0  0  0  0  0  0  0  0  0  0  0
    4.0821   -0.9925   -0.1685 C   0  0  0  0  0  0  0  0  0  0  0  0
    4.3110   -2.3809   -0.1975 C   0  0  0  0  0  0  0  0  0  0  0  0
    5.5385   -2.9127   -0.4455 C   0  0  0  0  0  0  0  0  0  0  0  0
    6.5852   -2.0675   -0.6741 C   0  0  0  0  0  0  0  0  0  0  0  0
    6.3844   -0.7188   -0.6500 C   0  0  0  0  0  0  0  0  0  0  0  0
    5.1300   -0.1611   -0.3969 C   0  0  0  0  0  0  0  0  0  0  0  0
    5.0185    1.1964   -0.3915 O   0  0  0  0  0  0  0  0  0  0  0  0
  1  2  1  0
  2  3  1  0
  3  4  1  0
  4  5  1  0
  3  6  1  0
  6  7  1  0
  7  8  1  0
  8  9  1  0
  9 10  2  0
 10 11  1  0
 11 12  1  0
 12 13  2  0
 12 14  1  0
 14 15  2  0
 15 16  1  0
 16 17  2  0
 17 18  1  0
 18 19  2  0
 19 20  1  0
 13  9  1  0
 19 14  1  0
M  END

