CC(C)(C)OC(=O)N1CC(C1)OC2=C(C=CC(=C2)I)Cl
     RDKit          3D

 20 21  0  0  0  0  0  0  0  0999 V2000
   -4.4641    0.9434   -1.0381 C   0  0  0  0  0  0  0  0  0  0  0  0
   -4.1458   -0.2077   -0.1078 C   0  0  0  0  0  0  0  0  0  0  0  0
   -4.7641    0.0770    1.2315 C   0  0  0  0  0  0  0  0  0  0  0  0
   -4.7299   -1.5110   -0.6205 C   0  0  0  0  0  0  0  0  0  0  0  0
   -2.7529   -0.3553   -0.0684 O   0  0  0  0  0  0  0  0  0  0  0  0
   -1.9127    0.6837    0.3704 C   0  0  0  0  0  0  0  0  0  0  0  0
   -2.5098    1.7323    0.7161 O   0  0  0  0  0  0  0  0  0  0  0  0
   -0.5145    0.5235    0.4054 N   0  0  0  0  0  0  0  0  0  0  0  0
    0.3818   -0.5525    0.0697 C   0  0  0  0  0  0  0  0  0  0  0  0
    1.5580    0.4427    0.0333 C   0  0  0  0  0  0  0  0  0  0  0  0
    0.5952    1.3583    0.7871 C   0  0  0  0  0  0  0  0  0  0  0  0
    2.5832   -0.0826    0.8117 O   0  0  0  0  0  0  0  0  0  0  0  0
    3.8809   -0.2034    0.3459 C   0  0  0  0  0  0  0  0  0  0  0  0
    4.8659   -0.7360    1.1680 C   0  0  0  0  0  0  0  0  0  0  0  0
    6.1448   -0.8570    0.7144 C   0  0  0  0  0  0  0  0  0  0  0  0
    6.5460   -0.4749   -0.5479 C   0  0  0  0  0  0  0  0  0  0  0  0
    5.5553    0.0513   -1.3499 C   0  0  0  0  0  0  0  0  0  0  0  0
    4.2564    0.1848   -0.9171 C   0  0  0  0  0  0  0  0  0  0  0  0
    6.1231    0.6555   -3.3056 I   0  0  0  0  0  0  0  0  0  0  0  0
    4.3748   -1.2301    2.7838 Cl  0  0  0  0  0  0  0  0  0  0  0  0
  1  2  1  0
  2  3  1  0
  2  4  1  0
  2  5  1  0
  5  6  1  0
  6  7  2  0
  6  8  1  0
  8  9  1  0
  9 10  1  0
 10 11  1  0
 10 12  1  0
 12 13  1  0
 13 14  2  0
 14 15  1  0
 15 16  2  0
 16 17  1  0
 17 18  2  0
 17 19  1  0
 14 20  1  0
 11  8  1  0
 18 13  1  0
M  END

