COC=CC1(C)CCCC(=C)C1
     RDKit          3D

 12 12  0  0  0  0  0  0  0  0999 V2000
    2.8328    0.2412    2.3894 C   0  0  0  0  0  0  0  0  0  0  0  0
    1.7727   -0.5429    1.8562 O   0  0  0  0  0  0  0  0  0  0  0  0
    2.0568   -1.3452    0.7512 C   0  0  0  0  0  0  0  0  0  0  0  0
    1.2162   -1.4790   -0.2598 C   0  0  0  0  0  0  0  0  0  0  0  0
   -0.0687   -0.7374   -0.1903 C   0  0  0  0  0  0  0  0  0  0  0  0
   -0.6725   -1.0353    1.1780 C   0  0  0  0  0  0  0  0  0  0  0  0
   -1.0012   -1.2181   -1.2797 C   0  0  0  0  0  0  0  0  0  0  0  0
   -2.2464   -0.3817   -1.3000 C   0  0  0  0  0  0  0  0  0  0  0  0
   -1.8645    0.9894   -1.8241 C   0  0  0  0  0  0  0  0  0  0  0  0
   -0.8655    1.5319   -0.8524 C   0  0  0  0  0  0  0  0  0  0  0  0
   -1.0057    2.7804   -0.4376 C   0  0  0  0  0  0  0  0  0  0  0  0
    0.2421    0.7171   -0.3642 C   0  0  0  0  0  0  0  0  0  0  0  0
  1  2  1  0
  2  3  1  0
  3  4  2  3
  4  5  1  0
  5  6  1  0
  5  7  1  0
  7  8  1  0
  8  9  1  0
  9 10  1  0
 10 11  2  0
 10 12  1  0
 12  5  1  0
M  END

