FC(=C)COC(=C)C=CC#N
     RDKit          3D

 11 10  0  0  0  0  0  0  0  0999 V2000
    1.1826    0.2551   -1.2678 F   0  0  0  0  0  0  0  0  0  0  0  0
    1.8106   -0.5448   -0.3957 C   0  0  0  0  0  0  0  0  0  0  0  0
    3.1031   -0.8286   -0.5825 C   0  0  0  0  0  0  0  0  0  0  0  0
    1.0836   -1.0953    0.7746 C   0  0  0  0  0  0  0  0  0  0  0  0
    0.5648   -0.0457    1.5761 O   0  0  0  0  0  0  0  0  0  0  0  0
   -0.3744    0.7912    0.9568 C   0  0  0  0  0  0  0  0  0  0  0  0
   -0.0133    2.1142    0.8813 C   0  0  0  0  0  0  0  0  0  0  0  0
   -1.5921    0.3765    0.4356 C   0  0  0  0  0  0  0  0  0  0  0  0
   -2.6586    0.0004   -0.0179 C   0  0  0  0  0  0  0  0  0  0  0  0
   -3.8074   -0.4502   -0.4948 C   0  0  0  0  0  0  0  0  0  0  0  0
   -4.8049   -0.8785   -0.8854 N   0  0  0  0  0  0  0  0  0  0  0  0
  1  2  1  0
  2  3  2  0
  2  4  1  0
  4  5  1  0
  5  6  1  0
  6  7  2  0
  6  8  1  0
  8  9  2  3
  9 10  1  0
 10 11  3  0
M  END

