C1=CC(=CC=C1SC/C(=N\O)/NC(=O)N)Cl
     RDKit          3D

 16 16  0  0  0  0  0  0  0  0999 V2000
   -1.5254    0.9302   -1.0725 C   0  0  0  0  0  0  0  0  0  0  0  0
   -2.3743    1.6311   -1.9046 C   0  0  0  0  0  0  0  0  0  0  0  0
   -3.7467    1.4897   -1.8166 C   0  0  0  0  0  0  0  0  0  0  0  0
   -4.2548    0.6310   -0.8772 C   0  0  0  0  0  0  0  0  0  0  0  0
   -3.3936   -0.0603   -0.0552 C   0  0  0  0  0  0  0  0  0  0  0  0
   -2.0132    0.0687   -0.1288 C   0  0  0  0  0  0  0  0  0  0  0  0
   -0.9357   -0.8497    0.9598 S   0  0  0  0  0  0  0  0  0  0  0  0
    0.7777   -0.4035    0.5471 C   0  0  0  0  0  0  0  0  0  0  0  0
    1.7496   -1.1114    1.3936 C   0  0  0  0  0  0  0  0  0  0  0  0
    1.2923   -1.9239    2.2834 N   0  0  0  0  0  0  0  0  0  0  0  0
   -0.0664   -2.1379    2.4534 O   0  0  0  0  0  0  0  0  0  0  0  0
    3.1346   -0.8876    1.2139 N   0  0  0  0  0  0  0  0  0  0  0  0
    3.6126    0.0052    0.2348 C   0  0  0  0  0  0  0  0  0  0  0  0
    2.8485    0.6440   -0.5232 O   0  0  0  0  0  0  0  0  0  0  0  0
    5.0071    0.2175    0.0686 N   0  0  0  0  0  0  0  0  0  0  0  0
   -4.8026    2.4061   -2.9018 Cl  0  0  0  0  0  0  0  0  0  0  0  0
  1  2  2  0
  2  3  1  0
  3  4  2  0
  4  5  1  0
  5  6  2  0
  6  7  1  0
  7  8  1  0
  8  9  1  0
  9 10  2  0
 10 11  1  0
  9 12  1  0
 12 13  1  0
 13 14  2  0
 13 15  1  0
  3 16  1  0
  6  1  1  0
M  END

