CCS/C(=N/N=CC1=C(C=CC(=C1)C)O)/N
     RDKit          3D

 16 16  0  0  0  0  0  0  0  0999 V2000
    6.4019    0.3041    0.8878 C   0  0  0  0  0  0  0  0  0  0  0  0
    4.9242    0.4212    0.5602 C   0  0  0  0  0  0  0  0  0  0  0  0
    4.2104   -1.1688    0.1024 S   0  0  0  0  0  0  0  0  0  0  0  0
    2.4788   -0.9087   -0.2593 C   0  0  0  0  0  0  0  0  0  0  0  0
    1.8947    0.2177   -0.1924 N   0  0  0  0  0  0  0  0  0  0  0  0
    0.5560    0.4433   -0.4676 N   0  0  0  0  0  0  0  0  0  0  0  0
   -0.4149    0.0463    0.2332 C   0  0  0  0  0  0  0  0  0  0  0  0
   -1.8030    0.2999   -0.0838 C   0  0  0  0  0  0  0  0  0  0  0  0
   -2.1990    1.0054   -1.1911 C   0  0  0  0  0  0  0  0  0  0  0  0
   -3.5647    1.1882   -1.3959 C   0  0  0  0  0  0  0  0  0  0  0  0
   -4.5397    0.7068   -0.5594 C   0  0  0  0  0  0  0  0  0  0  0  0
   -4.1358    0.0024    0.5458 C   0  0  0  0  0  0  0  0  0  0  0  0
   -2.8074   -0.1916    0.7710 C   0  0  0  0  0  0  0  0  0  0  0  0
   -5.1094   -0.5692    1.5272 C   0  0  0  0  0  0  0  0  0  0  0  0
   -1.3499    1.5452   -2.1134 O   0  0  0  0  0  0  0  0  0  0  0  0
    1.7108   -2.0413   -0.6467 N   0  0  0  0  0  0  0  0  0  0  0  0
  1  2  1  0
  2  3  1  0
  3  4  1  0
  4  5  2  0
  5  6  1  0
  6  7  2  0
  7  8  1  0
  8  9  2  0
  9 10  1  0
 10 11  2  0
 11 12  1  0
 12 13  2  0
 12 14  1  0
  9 15  1  0
  4 16  1  0
 13  8  1  0
M  END

