CC1=C2CCCCC2=C(N=N1)Cl
     RDKit          3D

 12 13  0  0  0  0  0  0  0  0999 V2000
    2.5604   -1.3941   -0.3248 C   0  0  0  0  0  0  0  0  0  0  0  0
    1.9300   -0.0971   -0.1909 C   0  0  0  0  0  0  0  0  0  0  0  0
    0.5562   -0.0059   -0.1989 C   0  0  0  0  0  0  0  0  0  0  0  0
   -0.2373   -1.2071   -0.3433 C   0  0  0  0  0  0  0  0  0  0  0  0
   -1.4850   -1.1809    0.4990 C   0  0  0  0  0  0  0  0  0  0  0  0
   -2.2463    0.0885    0.4724 C   0  0  0  0  0  0  0  0  0  0  0  0
   -1.5420    1.2802   -0.0830 C   0  0  0  0  0  0  0  0  0  0  0  0
   -0.0852    1.2010   -0.0749 C   0  0  0  0  0  0  0  0  0  0  0  0
    0.7051    2.3184    0.0579 C   0  0  0  0  0  0  0  0  0  0  0  0
    2.0567    2.2338    0.0662 N   0  0  0  0  0  0  0  0  0  0  0  0
    2.6136    1.0398   -0.0573 N   0  0  0  0  0  0  0  0  0  0  0  0
   -0.0110    3.9295    0.2251 Cl  0  0  0  0  0  0  0  0  0  0  0  0
  1  2  1  0
  2  3  2  0
  3  4  1  0
  4  5  1  0
  5  6  1  0
  6  7  1  0
  7  8  1  0
  8  9  2  0
  9 10  1  0
 10 11  2  0
  9 12  1  0
 11  2  1  0
  8  3  1  0
M  END

