C/C(=N\OC1=NC(=NC(=N1)Cl)Cl)/N
     RDKit          3D

 13 13  0  0  0  0  0  0  0  0999 V2000
   -2.2189   -0.6233   -0.8652 C   0  0  0  0  0  0  0  0  0  0  0  0
   -2.1147    0.4617    0.1447 C   0  0  0  0  0  0  0  0  0  0  0  0
   -1.1345    0.3913    0.9720 N   0  0  0  0  0  0  0  0  0  0  0  0
   -0.2664   -0.6570    0.8724 O   0  0  0  0  0  0  0  0  0  0  0  0
    1.0973   -0.4655    0.5741 C   0  0  0  0  0  0  0  0  0  0  0  0
    1.9148   -1.5244    0.4859 N   0  0  0  0  0  0  0  0  0  0  0  0
    3.2293   -1.4096    0.2037 C   0  0  0  0  0  0  0  0  0  0  0  0
    3.7215   -0.1731    0.0060 N   0  0  0  0  0  0  0  0  0  0  0  0
    2.9337    0.9327    0.0845 C   0  0  0  0  0  0  0  0  0  0  0  0
    1.6234    0.7494    0.3710 N   0  0  0  0  0  0  0  0  0  0  0  0
    3.5718    2.5448   -0.1725 Cl  0  0  0  0  0  0  0  0  0  0  0  0
    4.2743   -2.8216    0.0954 Cl  0  0  0  0  0  0  0  0  0  0  0  0
   -3.0582    1.5251    0.1888 N   0  0  0  0  0  0  0  0  0  0  0  0
  1  2  1  0
  2  3  2  0
  3  4  1  0
  4  5  1  0
  5  6  2  0
  6  7  1  0
  7  8  2  0
  8  9  1  0
  9 10  2  0
  9 11  1  0
  7 12  1  0
  2 13  1  0
 10  5  1  0
M  END

