C#CCC1CC(CO1)N1N=CC=N1
     RDKit          3D

 13 14  0  0  0  0  0  0  0  0999 V2000
    3.6648    1.6122    1.6113 C   0  0  0  0  0  0  0  0  0  0  0  0
    3.2885    0.6156    1.0216 C   0  0  0  0  0  0  0  0  0  0  0  0
    2.8200   -0.5713    0.3047 C   0  0  0  0  0  0  0  0  0  0  0  0
    1.6702   -0.2054   -0.6081 C   0  0  0  0  0  0  0  0  0  0  0  0
    0.5034    0.3662    0.1664 C   0  0  0  0  0  0  0  0  0  0  0  0
   -0.6019    0.1816   -0.8582 C   0  0  0  0  0  0  0  0  0  0  0  0
   -0.1715   -1.0963   -1.5171 C   0  0  0  0  0  0  0  0  0  0  0  0
    1.1701   -1.2729   -1.3009 O   0  0  0  0  0  0  0  0  0  0  0  0
   -1.9022    0.0833   -0.2393 N   0  0  0  0  0  0  0  0  0  0  0  0
   -2.4918    1.0988    0.3647 N   0  0  0  0  0  0  0  0  0  0  0  0
   -3.6840    0.7363    0.8490 C   0  0  0  0  0  0  0  0  0  0  0  0
   -3.8307   -0.5951    0.5161 C   0  0  0  0  0  0  0  0  0  0  0  0
   -2.7187   -0.9456   -0.1457 N   0  0  0  0  0  0  0  0  0  0  0  0
  1  2  3  0
  2  3  1  0
  3  4  1  0
  4  5  1  0
  5  6  1  0
  6  7  1  0
  7  8  1  0
  6  9  1  0
  9 10  1  0
 10 11  2  0
 11 12  1  0
 12 13  2  0
  8  4  1  0
 13  9  1  0
M  END

