CC=CC1=CC2CCC=C2C1C#N
     RDKit          3D

 13 14  0  0  0  0  0  0  0  0999 V2000
    4.3665   -0.4587    0.5186 C   0  0  0  0  0  0  0  0  0  0  0  0
    2.9007   -0.5405    0.2933 C   0  0  0  0  0  0  0  0  0  0  0  0
    2.1282    0.5246    0.2100 C   0  0  0  0  0  0  0  0  0  0  0  0
    0.7062    0.3384   -0.0121 C   0  0  0  0  0  0  0  0  0  0  0  0
   -0.1460    1.3483   -0.1093 C   0  0  0  0  0  0  0  0  0  0  0  0
   -1.5042    0.8230   -0.3329 C   0  0  0  0  0  0  0  0  0  0  0  0
   -2.5527    1.3543    0.6091 C   0  0  0  0  0  0  0  0  0  0  0  0
   -3.5489    0.1774    0.5222 C   0  0  0  0  0  0  0  0  0  0  0  0
   -2.5898   -0.9870    0.6289 C   0  0  0  0  0  0  0  0  0  0  0  0
   -1.4273   -0.6135    0.1423 C   0  0  0  0  0  0  0  0  0  0  0  0
   -0.0049   -0.9689   -0.1582 C   0  0  0  0  0  0  0  0  0  0  0  0
   -0.0061   -1.4041   -1.5542 C   0  0  0  0  0  0  0  0  0  0  0  0
    0.0133   -1.7539   -2.6659 N   0  0  0  0  0  0  0  0  0  0  0  0
  1  2  1  0
  2  3  2  3
  3  4  1  0
  4  5  2  0
  5  6  1  0
  6  7  1  0
  7  8  1  0
  8  9  1  0
  9 10  2  0
 10 11  1  0
 11 12  1  0
 12 13  3  0
 11  4  1  0
 10  6  1  0
M  END

