CC(NC(=O)CC([NH3+])(CO)CCO)C#C
     RDKit          3D

 15 14  0  0  0  0  0  0  0  0999 V2000
    4.2196   -1.0428    1.4669 C   0  0  0  0  0  0  0  0  0  0  0  0
    3.4308   -0.9092    0.1917 C   0  0  0  0  0  0  0  0  0  0  0  0
    2.3080   -0.0069    0.3265 N   0  0  0  0  0  0  0  0  0  0  0  0
    0.9568   -0.4090    0.1386 C   0  0  0  0  0  0  0  0  0  0  0  0
    0.7919   -1.6209   -0.1579 O   0  0  0  0  0  0  0  0  0  0  0  0
   -0.1046    0.5702    0.2957 C   0  0  0  0  0  0  0  0  0  0  0  0
   -1.5019    0.1057    0.0481 C   0  0  0  0  0  0  0  0  0  0  0  0
   -1.8968   -0.9827    0.9295 N   0  0  0  0  0  4  0  0  0  0  0  0
   -1.7278   -0.3303   -1.3627 C   0  0  0  0  0  0  0  0  0  0  0  0
   -1.3819    0.6674   -2.2861 O   0  0  0  0  0  0  0  0  0  0  0  0
   -2.3881    1.2806    0.4596 C   0  0  0  0  0  0  0  0  0  0  0  0
   -3.8416    1.0392    0.2976 C   0  0  0  0  0  0  0  0  0  0  0  0
   -4.2586    0.7727   -0.9841 O   0  0  0  0  0  0  0  0  0  0  0  0
    4.2731   -0.3587   -0.8937 C   0  0  0  0  0  0  0  0  0  0  0  0
    4.9618    0.1071   -1.7677 C   0  0  0  0  0  0  0  0  0  0  0  0
  1  2  1  0
  2  3  1  0
  3  4  1  0
  4  5  2  0
  4  6  1  0
  6  7  1  0
  7  8  1  0
  7  9  1  0
  9 10  1  0
  7 11  1  0
 11 12  1  0
 12 13  1  0
  2 14  1  0
 14 15  3  0
M  CHG  1   8   1
M  END

