CC(O)C#CCCC(O)CNC=C(C)C=O
     RDKit          3D

 16 15  0  0  0  0  0  0  0  0999 V2000
   -6.1367   -0.0837   -0.0468 C   0  0  0  0  0  0  0  0  0  0  0  0
   -4.8545    0.6261   -0.3277 C   0  0  0  0  0  0  0  0  0  0  0  0
   -4.7244    1.0132   -1.6534 O   0  0  0  0  0  0  0  0  0  0  0  0
   -3.7379   -0.2804   -0.0358 C   0  0  0  0  0  0  0  0  0  0  0  0
   -2.8042   -1.0134    0.1968 C   0  0  0  0  0  0  0  0  0  0  0  0
   -1.6574   -1.8851    0.4666 C   0  0  0  0  0  0  0  0  0  0  0  0
   -0.4301   -1.0647    0.8567 C   0  0  0  0  0  0  0  0  0  0  0  0
   -0.0881   -0.1445   -0.2646 C   0  0  0  0  0  0  0  0  0  0  0  0
    0.1861   -0.8721   -1.3984 O   0  0  0  0  0  0  0  0  0  0  0  0
    1.0306    0.8169    0.0914 C   0  0  0  0  0  0  0  0  0  0  0  0
    2.2643    0.1051    0.3285 N   0  0  0  0  0  0  0  0  0  0  0  0
    3.4559    0.7835    0.6773 C   0  0  0  0  0  0  0  0  0  0  0  0
    4.6208    0.5293    0.0941 C   0  0  0  0  0  0  0  0  0  0  0  0
    5.8222    1.2732    0.5062 C   0  0  0  0  0  0  0  0  0  0  0  0
    4.6873   -0.4818   -0.9432 C   0  0  0  0  0  0  0  0  0  0  0  0
    5.7680   -0.7555   -1.5225 O   0  0  0  0  0  0  0  0  0  0  0  0
  1  2  1  0
  2  3  1  0
  2  4  1  0
  4  5  3  0
  5  6  1  0
  6  7  1  0
  7  8  1  0
  8  9  1  0
  8 10  1  0
 10 11  1  0
 11 12  1  0
 12 13  2  3
 13 14  1  0
 13 15  1  0
 15 16  2  0
M  END

