CC(NC=O)(C#C)C1(CC2CC2N1)C#N
     RDKit          3D

 15 16  0  0  0  0  0  0  0  0999 V2000
   -1.5062   -1.9462    0.3048 C   0  0  0  0  0  0  0  0  0  0  0  0
   -1.1731   -0.4540   -0.0461 C   0  0  0  0  0  0  0  0  0  0  0  0
   -1.6158    0.2715    1.0979 N   0  0  0  0  0  0  0  0  0  0  0  0
   -1.7049    1.6447    1.3590 C   0  0  0  0  0  0  0  0  0  0  0  0
   -1.4112    2.6015    0.6159 O   0  0  0  0  0  0  0  0  0  0  0  0
   -1.9965   -0.1408   -1.1962 C   0  0  0  0  0  0  0  0  0  0  0  0
   -2.6882    0.1280   -2.1496 C   0  0  0  0  0  0  0  0  0  0  0  0
    0.2570   -0.3969   -0.4203 C   0  0  0  0  0  0  0  0  0  0  0  0
    0.8681    0.8856   -0.8618 C   0  0  0  0  0  0  0  0  0  0  0  0
    1.7551    1.1769    0.2985 C   0  0  0  0  0  0  0  0  0  0  0  0
    3.0847    0.8414    0.6080 C   0  0  0  0  0  0  0  0  0  0  0  0
    2.3401   -0.2982    0.2810 C   0  0  0  0  0  0  0  0  0  0  0  0
    1.1209   -0.8675    0.7074 N   0  0  0  0  0  0  0  0  0  0  0  0
    0.5519   -1.4033   -1.4794 C   0  0  0  0  0  0  0  0  0  0  0  0
    0.7685   -2.1790   -2.3191 N   0  0  0  0  0  0  0  0  0  0  0  0
  1  2  1  0
  2  3  1  0
  3  4  1  0
  4  5  2  0
  2  6  1  0
  6  7  3  0
  2  8  1  0
  8  9  1  0
  9 10  1  0
 10 11  1  0
 11 12  1  0
 12 13  1  0
  8 14  1  0
 14 15  3  0
 13  8  1  0
 12 10  1  0
M  END

