COCCCNC(=S)N/N=C\C1=C(C(=CC(=C1)Cl)Cl)O
     RDKit          3D

 20 20  0  0  0  0  0  0  0  0999 V2000
    4.7253   -1.0573   -2.3180 C   0  0  0  0  0  0  0  0  0  0  0  0
    5.3400   -0.6317   -1.1628 O   0  0  0  0  0  0  0  0  0  0  0  0
    4.5988    0.2912   -0.4466 C   0  0  0  0  0  0  0  0  0  0  0  0
    3.2652   -0.2491   -0.0187 C   0  0  0  0  0  0  0  0  0  0  0  0
    2.5051    0.7852    0.7504 C   0  0  0  0  0  0  0  0  0  0  0  0
    1.1968    0.2805    1.1803 N   0  0  0  0  0  0  0  0  0  0  0  0
    0.2970    1.0654    1.9187 C   0  0  0  0  0  0  0  0  0  0  0  0
    0.6427    2.5835    2.3465 S   0  0  0  0  0  0  0  0  0  0  0  0
   -0.9688    0.4770    2.2955 N   0  0  0  0  0  0  0  0  0  0  0  0
   -1.2320   -0.7585    1.9383 N   0  0  0  0  0  0  0  0  0  0  0  0
   -2.0327   -1.2876    1.1872 C   0  0  0  0  0  0  0  0  0  0  0  0
   -3.0312   -0.6626    0.3761 C   0  0  0  0  0  0  0  0  0  0  0  0
   -3.2484    0.6447    0.1221 C   0  0  0  0  0  0  0  0  0  0  0  0
   -4.3470    1.1149   -0.6056 C   0  0  0  0  0  0  0  0  0  0  0  0
   -5.2730    0.2328   -1.1057 C   0  0  0  0  0  0  0  0  0  0  0  0
   -5.0894   -1.1083   -0.8725 C   0  0  0  0  0  0  0  0  0  0  0  0
   -4.0035   -1.5277   -0.1564 C   0  0  0  0  0  0  0  0  0  0  0  0
   -6.2365   -2.2450   -1.4797 Cl  0  0  0  0  0  0  0  0  0  0  0  0
   -4.5390    2.8354   -0.8780 Cl  0  0  0  0  0  0  0  0  0  0  0  0
   -2.3599    1.5842    0.5816 O   0  0  0  0  0  0  0  0  0  0  0  0
  1  2  1  0
  2  3  1  0
  3  4  1  0
  4  5  1  0
  5  6  1  0
  6  7  1  0
  7  8  2  0
  7  9  1  0
  9 10  1  0
 10 11  2  0
 11 12  1  0
 12 13  2  0
 13 14  1  0
 14 15  2  0
 15 16  1  0
 16 17  2  0
 16 18  1  0
 14 19  1  0
 13 20  1  0
 17 12  1  0
M  END

