CCN(CC)C1=CC=C(C=C1)/C=C/2\C(=O)N/C(=N/O)/S2
     RDKit          3D

 20 21  0  0  0  0  0  0  0  0999 V2000
   -3.8109   -2.0509   -0.2620 C   0  0  0  0  0  0  0  0  0  0  0  0
   -3.3726   -0.9741    0.6981 C   0  0  0  0  0  0  0  0  0  0  0  0
   -2.7619    0.1481   -0.0130 N   0  0  0  0  0  0  0  0  0  0  0  0
   -3.6846    0.9314   -0.8239 C   0  0  0  0  0  0  0  0  0  0  0  0
   -4.6628    1.7194   -0.0074 C   0  0  0  0  0  0  0  0  0  0  0  0
   -1.3698    0.4107    0.0760 C   0  0  0  0  0  0  0  0  0  0  0  0
   -0.8467    1.5908   -0.4072 C   0  0  0  0  0  0  0  0  0  0  0  0
    0.5176    1.8342   -0.3555 C   0  0  0  0  0  0  0  0  0  0  0  0
    1.4134    0.9251    0.1736 C   0  0  0  0  0  0  0  0  0  0  0  0
    0.8546   -0.2410    0.6476 C   0  0  0  0  0  0  0  0  0  0  0  0
   -0.5016   -0.5247    0.6149 C   0  0  0  0  0  0  0  0  0  0  0  0
    2.8230    1.2421    0.2337 C   0  0  0  0  0  0  0  0  0  0  0  0
    3.6960    0.4329   -0.2959 C   0  0  0  0  0  0  0  0  0  0  0  0
    3.5122   -0.7965   -0.9788 C   0  0  0  0  0  0  0  0  0  0  0  0
    2.3668   -1.1828   -1.4091 O   0  0  0  0  0  0  0  0  0  0  0  0
    4.6586   -1.5712   -1.1632 N   0  0  0  0  0  0  0  0  0  0  0  0
    5.8584   -1.0634   -0.6638 C   0  0  0  0  0  0  0  0  0  0  0  0
    7.0038   -1.5839   -0.4665 N   0  0  0  0  0  0  0  0  0  0  0  0
    8.0670   -0.8846    0.0452 O   0  0  0  0  0  0  0  0  0  0  0  0
    5.4967    0.6729   -0.2946 S   0  0  0  0  0  0  0  0  0  0  0  0
  1  2  1  0
  2  3  1  0
  3  4  1  0
  4  5  1  0
  3  6  1  0
  6  7  2  0
  7  8  1  0
  8  9  2  0
  9 10  1  0
 10 11  2  0
  9 12  1  0
 12 13  2  0
 13 14  1  0
 14 15  2  0
 14 16  1  0
 16 17  1  0
 17 18  2  0
 18 19  1  0
 17 20  1  0
 11  6  1  0
 20 13  1  0
M  END

