C1=CC=NC(=C1)CCN/N=C\C2=C(C(=CC(=C2)Cl)Cl)O
     RDKit          3D

 20 21  0  0  0  0  0  0  0  0999 V2000
   -5.4274    0.2705    0.0438 C   0  0  0  0  0  0  0  0  0  0  0  0
   -5.4005   -0.4609    1.2128 C   0  0  0  0  0  0  0  0  0  0  0  0
   -4.2103   -1.0876    1.5700 C   0  0  0  0  0  0  0  0  0  0  0  0
   -3.0962   -1.0073    0.8249 N   0  0  0  0  0  0  0  0  0  0  0  0
   -3.0926   -0.3027   -0.3175 C   0  0  0  0  0  0  0  0  0  0  0  0
   -4.2614    0.3243   -0.6869 C   0  0  0  0  0  0  0  0  0  0  0  0
   -1.9095   -0.1616   -1.1990 C   0  0  0  0  0  0  0  0  0  0  0  0
   -0.7105   -0.8958   -0.6726 C   0  0  0  0  0  0  0  0  0  0  0  0
    0.3786   -0.6924   -1.6030 N   0  0  0  0  0  0  0  0  0  0  0  0
    0.8128    0.5700   -1.8547 N   0  0  0  0  0  0  0  0  0  0  0  0
    1.8385    1.1383   -1.3773 C   0  0  0  0  0  0  0  0  0  0  0  0
    2.7934    0.5814   -0.4507 C   0  0  0  0  0  0  0  0  0  0  0  0
    3.8558    1.4143   -0.0647 C   0  0  0  0  0  0  0  0  0  0  0  0
    4.8018    0.9793    0.8014 C   0  0  0  0  0  0  0  0  0  0  0  0
    4.7438   -0.2965    1.3266 C   0  0  0  0  0  0  0  0  0  0  0  0
    3.7243   -1.1478    0.9793 C   0  0  0  0  0  0  0  0  0  0  0  0
    2.7511   -0.6762    0.0776 C   0  0  0  0  0  0  0  0  0  0  0  0
    3.6265   -2.7695    1.6297 Cl  0  0  0  0  0  0  0  0  0  0  0  0
    6.0967    2.0878    1.2305 Cl  0  0  0  0  0  0  0  0  0  0  0  0
    3.9302    2.7136   -0.5886 O   0  0  0  0  0  0  0  0  0  0  0  0
  1  2  2  0
  2  3  1  0
  3  4  2  0
  4  5  1  0
  5  6  2  0
  5  7  1  0
  7  8  1  0
  8  9  1  0
  9 10  1  0
 10 11  2  0
 11 12  1  0
 12 13  2  0
 13 14  1  0
 14 15  2  0
 15 16  1  0
 16 17  2  0
 16 18  1  0
 14 19  1  0
 13 20  1  0
  6  1  1  0
 17 12  1  0
M  END

