C#CC1=C(C=CC(=C1)Cl)I
     RDKit          3D

 10 10  0  0  0  0  0  0  0  0999 V2000
    3.2827    0.0320    0.5580 C   0  0  0  0  0  0  0  0  0  0  0  0
    2.0949    0.0127    0.3742 C   0  0  0  0  0  0  0  0  0  0  0  0
    0.6571   -0.0251    0.1435 C   0  0  0  0  0  0  0  0  0  0  0  0
    0.1243    0.9248   -0.7047 C   0  0  0  0  0  0  0  0  0  0  0  0
   -1.2382    0.8983   -0.9307 C   0  0  0  0  0  0  0  0  0  0  0  0
   -2.0601   -0.0249   -0.3492 C   0  0  0  0  0  0  0  0  0  0  0  0
   -1.4912   -0.9572    0.4917 C   0  0  0  0  0  0  0  0  0  0  0  0
   -0.1374   -0.9667    0.7446 C   0  0  0  0  0  0  0  0  0  0  0  0
   -2.4758   -2.1799    1.2808 Cl  0  0  0  0  0  0  0  0  0  0  0  0
    1.3659    2.3623   -1.6173 I   0  0  0  0  0  0  0  0  0  0  0  0
  1  2  3  0
  2  3  1  0
  3  4  2  0
  4  5  1  0
  5  6  2  0
  6  7  1  0
  7  8  2  0
  7  9  1  0
  4 10  1  0
  8  3  1  0
M  END

