C1=CC=C(C(=C1)CCC2OC3=CC=CC=C3O2)C(=O)O
     RDKit          3D

 20 22  0  0  0  0  0  0  0  0999 V2000
   -3.9466    2.4405    0.1452 C   0  0  0  0  0  0  0  0  0  0  0  0
   -4.9273    1.4622    0.2375 C   0  0  0  0  0  0  0  0  0  0  0  0
   -4.5802    0.1594    0.1642 C   0  0  0  0  0  0  0  0  0  0  0  0
   -3.2468   -0.2157   -0.0031 C   0  0  0  0  0  0  0  0  0  0  0  0
   -2.2497    0.7117   -0.0972 C   0  0  0  0  0  0  0  0  0  0  0  0
   -2.6342    2.0578   -0.0194 C   0  0  0  0  0  0  0  0  0  0  0  0
   -0.8255    0.4250   -0.2346 C   0  0  0  0  0  0  0  0  0  0  0  0
   -0.2195    0.0687    1.0821 C   0  0  0  0  0  0  0  0  0  0  0  0
    1.2540   -0.2426    0.9904 C   0  0  0  0  0  0  0  0  0  0  0  0
    1.9892    0.8735    0.4923 O   0  0  0  0  0  0  0  0  0  0  0  0
    3.1592    0.3032   -0.0135 C   0  0  0  0  0  0  0  0  0  0  0  0
    4.4305    0.8052   -0.2472 C   0  0  0  0  0  0  0  0  0  0  0  0
    5.4163   -0.0055   -0.7666 C   0  0  0  0  0  0  0  0  0  0  0  0
    5.1691   -1.3373   -1.0689 C   0  0  0  0  0  0  0  0  0  0  0  0
    3.9083   -1.8419   -0.8390 C   0  0  0  0  0  0  0  0  0  0  0  0
    2.9174   -1.0212   -0.3153 C   0  0  0  0  0  0  0  0  0  0  0  0
    1.5654   -1.2242    0.0263 O   0  0  0  0  0  0  0  0  0  0  0  0
   -2.9532   -1.6183   -0.1082 C   0  0  0  0  0  0  0  0  0  0  0  0
   -3.8983   -2.4556    0.0842 O   0  0  0  0  0  0  0  0  0  0  0  0
   -1.7386   -2.1447   -0.4013 O   0  0  0  0  0  0  0  0  0  0  0  0
  1  2  2  0
  2  3  1  0
  3  4  2  0
  4  5  1  0
  5  6  2  0
  5  7  1  0
  7  8  1  0
  8  9  1  0
  9 10  1  0
 10 11  1  0
 11 12  2  0
 12 13  1  0
 13 14  2  0
 14 15  1  0
 15 16  2  0
 16 17  1  0
  4 18  1  0
 18 19  2  0
 18 20  1  0
  6  1  1  0
 17  9  1  0
 16 11  1  0
M  END

