CC(NCC#N)C(C)=NO
     RDKit          3D

 10  9  0  0  0  0  0  0  0  0999 V2000
   -0.0185   -0.0282    1.7365 C   0  0  0  0  0  0  0  0  0  0  0  0
    0.2696    0.0847    0.2565 C   0  0  0  0  0  0  0  0  0  0  0  0
    0.9430   -1.0082   -0.3282 N   0  0  0  0  0  0  0  0  0  0  0  0
    2.2481   -1.2102    0.1939 C   0  0  0  0  0  0  0  0  0  0  0  0
    3.0591   -0.0509   -0.2623 C   0  0  0  0  0  0  0  0  0  0  0  0
    3.6748    0.8614   -0.6276 N   0  0  0  0  0  0  0  0  0  0  0  0
   -1.0455    0.3161   -0.4024 C   0  0  0  0  0  0  0  0  0  0  0  0
   -1.7718    1.5369    0.0085 C   0  0  0  0  0  0  0  0  0  0  0  0
   -1.4463   -0.5423   -1.2665 N   0  0  0  0  0  0  0  0  0  0  0  0
   -2.6101   -0.4925   -1.9608 O   0  0  0  0  0  0  0  0  0  0  0  0
  1  2  1  0
  2  3  1  0
  3  4  1  0
  4  5  1  0
  5  6  3  0
  2  7  1  0
  7  8  1  0
  7  9  2  3
  9 10  1  0
M  END

