C1C2=C(CN1)C=C(C=C2)CBr
     RDKit          3D

 11 12  0  0  0  0  0  0  0  0999 V2000
   -2.4108    0.7439    0.0840 C   0  0  0  0  0  0  0  0  0  0  0  0
   -0.9296    0.7395   -0.0086 C   0  0  0  0  0  0  0  0  0  0  0  0
   -0.5252   -0.5703    0.1482 C   0  0  0  0  0  0  0  0  0  0  0  0
   -1.7651   -1.3896    0.3379 C   0  0  0  0  0  0  0  0  0  0  0  0
   -2.7495   -0.5803   -0.4012 N   0  0  0  0  0  0  0  0  0  0  0  0
    0.8119   -0.9060    0.1117 C   0  0  0  0  0  0  0  0  0  0  0  0
    1.8057    0.0445   -0.0822 C   0  0  0  0  0  0  0  0  0  0  0  0
    1.3997    1.3481   -0.2381 C   0  0  0  0  0  0  0  0  0  0  0  0
    0.0586    1.6877   -0.2018 C   0  0  0  0  0  0  0  0  0  0  0  0
    3.2497   -0.3264   -0.1204 C   0  0  0  0  0  0  0  0  0  0  0  0
    3.7321   -0.7271   -1.9226 Br  0  0  0  0  0  0  0  0  0  0  0  0
  1  2  1  0
  2  3  2  0
  3  4  1  0
  4  5  1  0
  3  6  1  0
  6  7  2  0
  7  8  1  0
  8  9  2  0
  7 10  1  0
 10 11  1  0
  5  1  1  0
  9  2  1  0
M  END

