CC1=NN=C(N1/N=C\C2=CC(=C(C=C2)O)O)C
     RDKit          3D

 17 18  0  0  0  0  0  0  0  0999 V2000
   -2.4882    2.3061    0.5219 C   0  0  0  0  0  0  0  0  0  0  0  0
   -2.5498    1.1573   -0.4275 C   0  0  0  0  0  0  0  0  0  0  0  0
   -2.9770    1.1662   -1.6991 N   0  0  0  0  0  0  0  0  0  0  0  0
   -2.8738   -0.0507   -2.2013 N   0  0  0  0  0  0  0  0  0  0  0  0
   -2.3789   -0.8971   -1.2857 C   0  0  0  0  0  0  0  0  0  0  0  0
   -2.1772   -0.1317   -0.1726 N   0  0  0  0  0  0  0  0  0  0  0  0
   -1.7420   -0.5871    1.0097 N   0  0  0  0  0  0  0  0  0  0  0  0
   -0.5563   -0.6448    1.3868 C   0  0  0  0  0  0  0  0  0  0  0  0
    0.6595   -0.2612    0.7088 C   0  0  0  0  0  0  0  0  0  0  0  0
    1.8806   -0.4389    1.3815 C   0  0  0  0  0  0  0  0  0  0  0  0
    3.0894   -0.1154    0.8466 C   0  0  0  0  0  0  0  0  0  0  0  0
    3.1916    0.4180   -0.4154 C   0  0  0  0  0  0  0  0  0  0  0  0
    2.0313    0.6110   -1.1124 C   0  0  0  0  0  0  0  0  0  0  0  0
    0.7886    0.2697   -0.5417 C   0  0  0  0  0  0  0  0  0  0  0  0
    4.4297    0.7487   -0.9617 O   0  0  0  0  0  0  0  0  0  0  0  0
    4.2784   -0.3013    1.5323 O   0  0  0  0  0  0  0  0  0  0  0  0
   -2.0978   -2.3549   -1.4164 C   0  0  0  0  0  0  0  0  0  0  0  0
  1  2  1  0
  2  3  2  0
  3  4  1  0
  4  5  2  0
  5  6  1  0
  6  7  1  0
  7  8  2  0
  8  9  1  0
  9 10  2  0
 10 11  1  0
 11 12  2  0
 12 13  1  0
 13 14  2  0
 12 15  1  0
 11 16  1  0
  5 17  1  0
  6  2  1  0
 14  9  1  0
M  END

