C=CC=CC(NC1=NC=CS1)C#C
     RDKit          3D

 13 13  0  0  0  0  0  0  0  0999 V2000
    4.0754   -1.7505   -0.1900 C   0  0  0  0  0  0  0  0  0  0  0  0
    2.9805   -1.2251    0.3251 C   0  0  0  0  0  0  0  0  0  0  0  0
    2.1777   -0.3410   -0.4789 C   0  0  0  0  0  0  0  0  0  0  0  0
    1.0556    0.2283   -0.0239 C   0  0  0  0  0  0  0  0  0  0  0  0
    0.2387    1.1332   -0.8544 C   0  0  0  0  0  0  0  0  0  0  0  0
   -0.9772    0.5130   -1.3043 N   0  0  0  0  0  0  0  0  0  0  0  0
   -1.9637    0.0177   -0.3899 C   0  0  0  0  0  0  0  0  0  0  0  0
   -3.1172   -0.5698   -0.6688 N   0  0  0  0  0  0  0  0  0  0  0  0
   -3.8891   -0.9559    0.2882 C   0  0  0  0  0  0  0  0  0  0  0  0
   -3.4760   -0.7382    1.5786 C   0  0  0  0  0  0  0  0  0  0  0  0
   -1.9680    0.0260    1.3246 S   0  0  0  0  0  0  0  0  0  0  0  0
   -0.0811    2.3376   -0.0501 C   0  0  0  0  0  0  0  0  0  0  0  0
   -0.3253    3.3117    0.6165 C   0  0  0  0  0  0  0  0  0  0  0  0
  1  2  2  0
  2  3  1  0
  3  4  2  3
  4  5  1  0
  5  6  1  0
  6  7  1  0
  7  8  2  0
  8  9  1  0
  9 10  2  0
 10 11  1  0
  5 12  1  0
 12 13  3  0
 11  7  1  0
M  END

