COC(=O)C1=C(N(C(=O)C=C1C2=CC=CC=C2)C3CCCCC3)O
     RDKit          3D

 24 26  0  0  0  0  0  0  0  0999 V2000
   -1.7389   -3.7883    1.7359 C   0  0  0  0  0  0  0  0  0  0  0  0
   -1.0921   -2.6412    1.2420 O   0  0  0  0  0  0  0  0  0  0  0  0
   -1.8227   -1.5212    0.7873 C   0  0  0  0  0  0  0  0  0  0  0  0
   -3.0518   -1.6367    0.8605 O   0  0  0  0  0  0  0  0  0  0  0  0
   -1.1006   -0.3533    0.2832 C   0  0  0  0  0  0  0  0  0  0  0  0
    0.2986   -0.3630    0.2617 C   0  0  0  0  0  0  0  0  0  0  0  0
    1.0466    0.6484   -0.1462 N   0  0  0  0  0  0  0  0  0  0  0  0
    0.3884    1.7532   -0.5651 C   0  0  0  0  0  0  0  0  0  0  0  0
    1.0465    2.7692   -0.9722 O   0  0  0  0  0  0  0  0  0  0  0  0
   -0.9663    1.8408   -0.5757 C   0  0  0  0  0  0  0  0  0  0  0  0
   -1.7488    0.7558   -0.1396 C   0  0  0  0  0  0  0  0  0  0  0  0
   -3.1986    0.8763   -0.2211 C   0  0  0  0  0  0  0  0  0  0  0  0
   -3.9163    0.0360   -1.0271 C   0  0  0  0  0  0  0  0  0  0  0  0
   -5.3043    0.1406   -1.0981 C   0  0  0  0  0  0  0  0  0  0  0  0
   -5.9775    1.0921   -0.3583 C   0  0  0  0  0  0  0  0  0  0  0  0
   -5.2721    1.9498    0.4605 C   0  0  0  0  0  0  0  0  0  0  0  0
   -3.9025    1.8210    0.5089 C   0  0  0  0  0  0  0  0  0  0  0  0
    2.4714    0.6789   -0.1839 C   0  0  0  0  0  0  0  0  0  0  0  0
    2.9426    0.5695   -1.6121 C   0  0  0  0  0  0  0  0  0  0  0  0
    4.4496    0.7677   -1.6337 C   0  0  0  0  0  0  0  0  0  0  0  0
    5.1582   -0.1239   -0.6517 C   0  0  0  0  0  0  0  0  0  0  0  0
    4.6391    0.1469    0.7609 C   0  0  0  0  0  0  0  0  0  0  0  0
    3.1609   -0.2822    0.7253 C   0  0  0  0  0  0  0  0  0  0  0  0
    0.9128   -1.5094    0.6977 O   0  0  0  0  0  0  0  0  0  0  0  0
  1  2  1  0
  2  3  1  0
  3  4  2  0
  3  5  1  0
  5  6  2  0
  6  7  1  0
  7  8  1  0
  8  9  2  0
  8 10  1  0
 10 11  2  0
 11 12  1  0
 12 13  2  0
 13 14  1  0
 14 15  2  0
 15 16  1  0
 16 17  2  0
  7 18  1  0
 18 19  1  0
 19 20  1  0
 20 21  1  0
 21 22  1  0
 22 23  1  0
  6 24  1  0
 11  5  1  0
 17 12  1  0
 23 18  1  0
M  END

