C=CC1=CC2=C(C=C1O)N=C(O2)C3=CC(=C(C=C3)O)F
     RDKit          3D

 20 22  0  0  0  0  0  0  0  0999 V2000
   -5.1869   -1.5082   -0.5523 C   0  0  0  0  0  0  0  0  0  0  0  0
   -4.8817   -0.2675   -0.2510 C   0  0  0  0  0  0  0  0  0  0  0  0
   -3.5187    0.1858   -0.0886 C   0  0  0  0  0  0  0  0  0  0  0  0
   -2.4181   -0.6283   -0.2318 C   0  0  0  0  0  0  0  0  0  0  0  0
   -1.1291   -0.1328   -0.0626 C   0  0  0  0  0  0  0  0  0  0  0  0
   -0.9124    1.1790    0.2515 C   0  0  0  0  0  0  0  0  0  0  0  0
   -2.0153    1.9975    0.3956 C   0  0  0  0  0  0  0  0  0  0  0  0
   -3.2972    1.5331    0.2340 C   0  0  0  0  0  0  0  0  0  0  0  0
   -4.3874    2.3752    0.3841 O   0  0  0  0  0  0  0  0  0  0  0  0
    0.4263    1.3721    0.3524 N   0  0  0  0  0  0  0  0  0  0  0  0
    0.9815    0.1651    0.0950 C   0  0  0  0  0  0  0  0  0  0  0  0
    0.0386   -0.6960   -0.1447 O   0  0  0  0  0  0  0  0  0  0  0  0
    2.4149   -0.1008    0.0932 C   0  0  0  0  0  0  0  0  0  0  0  0
    2.8881   -1.3664   -0.1812 C   0  0  0  0  0  0  0  0  0  0  0  0
    4.2551   -1.6135   -0.1815 C   0  0  0  0  0  0  0  0  0  0  0  0
    5.1846   -0.6211    0.0881 C   0  0  0  0  0  0  0  0  0  0  0  0
    4.6986    0.6548    0.3644 C   0  0  0  0  0  0  0  0  0  0  0  0
    3.3391    0.8863    0.3613 C   0  0  0  0  0  0  0  0  0  0  0  0
    6.5479   -0.8832    0.0842 O   0  0  0  0  0  0  0  0  0  0  0  0
    4.6889   -2.8813   -0.4581 F   0  0  0  0  0  0  0  0  0  0  0  0
  1  2  2  0
  2  3  1  0
  3  4  2  0
  4  5  1  0
  5  6  2  0
  6  7  1  0
  7  8  2  0
  8  9  1  0
  6 10  1  0
 10 11  2  0
 11 12  1  0
 11 13  1  0
 13 14  2  0
 14 15  1  0
 15 16  2  0
 16 17  1  0
 17 18  2  0
 16 19  1  0
 15 20  1  0
  8  3  1  0
 12  5  1  0
 18 13  1  0
M  END

