C1=CC(=NN=C1CNN)Cl
     RDKit          3D

 10 10  0  0  0  0  0  0  0  0999 V2000
   -1.2054   -0.6548   -0.5456 C   0  0  0  0  0  0  0  0  0  0  0  0
   -2.5233   -0.5789   -0.1406 C   0  0  0  0  0  0  0  0  0  0  0  0
   -2.9245    0.4735    0.6606 C   0  0  0  0  0  0  0  0  0  0  0  0
   -1.9821    1.3719    0.9984 N   0  0  0  0  0  0  0  0  0  0  0  0
   -0.7223    1.2946    0.6082 N   0  0  0  0  0  0  0  0  0  0  0  0
   -0.2680    0.2895   -0.1761 C   0  0  0  0  0  0  0  0  0  0  0  0
    1.1496    0.2328   -0.5954 C   0  0  0  0  0  0  0  0  0  0  0  0
    1.9455   -0.5145    0.3613 N   0  0  0  0  0  0  0  0  0  0  0  0
    3.2904   -0.5768   -0.0223 N   0  0  0  0  0  0  0  0  0  0  0  0
   -4.5952    0.6253    1.2105 Cl  0  0  0  0  0  0  0  0  0  0  0  0
  1  2  2  0
  2  3  1  0
  3  4  2  0
  4  5  1  0
  5  6  2  0
  6  7  1  0
  7  8  1  0
  8  9  1  0
  3 10  1  0
  6  1  1  0
M  END

