C1=CN=C(C=N1)C2=NC(=CS2)C(=O)NO
     RDKit          3D

 15 16  0  0  0  0  0  0  0  0999 V2000
   -4.5690   -0.4386    0.6511 C   0  0  0  0  0  0  0  0  0  0  0  0
   -3.7574    0.6264    0.9844 C   0  0  0  0  0  0  0  0  0  0  0  0
   -2.4393    0.5396    0.7569 N   0  0  0  0  0  0  0  0  0  0  0  0
   -1.8886   -0.5463    0.2177 C   0  0  0  0  0  0  0  0  0  0  0  0
   -2.6852   -1.6059   -0.1154 C   0  0  0  0  0  0  0  0  0  0  0  0
   -4.0058   -1.5366    0.1050 N   0  0  0  0  0  0  0  0  0  0  0  0
   -0.4364   -0.5963   -0.0135 C   0  0  0  0  0  0  0  0  0  0  0  0
    0.4340    0.3507    0.2613 N   0  0  0  0  0  0  0  0  0  0  0  0
    1.6916    0.1657    0.0010 C   0  0  0  0  0  0  0  0  0  0  0  0
    2.0518   -1.0356   -0.5594 C   0  0  0  0  0  0  0  0  0  0  0  0
    0.5375   -1.8273   -0.6754 S   0  0  0  0  0  0  0  0  0  0  0  0
    2.6974    1.2193    0.3013 C   0  0  0  0  0  0  0  0  0  0  0  0
    2.3787    2.3232    0.8145 O   0  0  0  0  0  0  0  0  0  0  0  0
    4.0632    1.0107    0.0155 N   0  0  0  0  0  0  0  0  0  0  0  0
    4.9839    1.9516    0.2804 O   0  0  0  0  0  0  0  0  0  0  0  0
  1  2  2  0
  2  3  1  0
  3  4  2  0
  4  5  1  0
  5  6  2  0
  4  7  1  0
  7  8  2  0
  8  9  1  0
  9 10  2  0
 10 11  1  0
  9 12  1  0
 12 13  2  0
 12 14  1  0
 14 15  1  0
  6  1  1  0
 11  7  1  0
M  END

