C1=CC2=C(C=CN=C2C(=C1)Cl)F
     RDKit          3D

 12 13  0  0  0  0  0  0  0  0999 V2000
    2.0703   -1.2574    0.0363 C   0  0  0  0  0  0  0  0  0  0  0  0
    0.7222   -1.5489   -0.0156 C   0  0  0  0  0  0  0  0  0  0  0  0
   -0.2240   -0.5458   -0.0213 C   0  0  0  0  0  0  0  0  0  0  0  0
   -1.5890   -0.8065   -0.0730 C   0  0  0  0  0  0  0  0  0  0  0  0
   -2.5064    0.2201   -0.0771 C   0  0  0  0  0  0  0  0  0  0  0  0
   -2.1018    1.5352   -0.0303 C   0  0  0  0  0  0  0  0  0  0  0  0
   -0.7772    1.7717    0.0195 N   0  0  0  0  0  0  0  0  0  0  0  0
    0.1474    0.7933    0.0251 C   0  0  0  0  0  0  0  0  0  0  0  0
    1.5055    1.0573    0.0766 C   0  0  0  0  0  0  0  0  0  0  0  0
    2.4612    0.0658    0.0829 C   0  0  0  0  0  0  0  0  0  0  0  0
    1.9485    2.7706    0.1348 Cl  0  0  0  0  0  0  0  0  0  0  0  0
   -1.9528   -2.1034   -0.1180 F   0  0  0  0  0  0  0  0  0  0  0  0
  1  2  2  0
  2  3  1  0
  3  4  2  0
  4  5  1  0
  5  6  2  0
  6  7  1  0
  7  8  2  0
  8  9  1  0
  9 10  2  0
  9 11  1  0
  4 12  1  0
 10  1  1  0
  8  3  1  0
M  END

