OC1C=NOCC2CCCOC12
     RDKit          3D

 12 13  0  0  0  0  0  0  0  0999 V2000
    2.2098    0.9282   -1.5292 O   0  0  0  0  0  0  0  0  0  0  0  0
    1.7401    1.0369   -0.2314 C   0  0  0  0  0  0  0  0  0  0  0  0
    2.5651    0.1351    0.6144 C   0  0  0  0  0  0  0  0  0  0  0  0
    2.4744   -1.1518    0.6474 N   0  0  0  0  0  0  0  0  0  0  0  0
    1.6106   -1.9593   -0.0790 O   0  0  0  0  0  0  0  0  0  0  0  0
    0.2285   -1.7581   -0.1743 C   0  0  0  0  0  0  0  0  0  0  0  0
   -0.1977   -0.4834   -0.7884 C   0  0  0  0  0  0  0  0  0  0  0  0
   -1.7334   -0.4534   -0.7096 C   0  0  0  0  0  0  0  0  0  0  0  0
   -2.1767   -0.1625    0.7156 C   0  0  0  0  0  0  0  0  0  0  0  0
   -1.5275    1.1490    1.1059 C   0  0  0  0  0  0  0  0  0  0  0  0
   -0.1415    0.8771    1.1931 O   0  0  0  0  0  0  0  0  0  0  0  0
    0.2807    0.7600   -0.1428 C   0  0  0  0  0  0  0  0  0  0  0  0
  1  2  1  0
  2  3  1  0
  3  4  2  0
  4  5  1  0
  5  6  1  0
  6  7  1  0
  7  8  1  0
  8  9  1  0
  9 10  1  0
 10 11  1  0
 11 12  1  0
 12  2  1  0
 12  7  1  0
M  END

