CC([NH2+]CCO)C(C)Oc1cn[nH]c(=O)c1C
     RDKit          3D

 17 17  0  0  0  0  0  0  0  0999 V2000
   -1.2973   -2.2568    0.0464 C   0  0  0  0  0  0  0  0  0  0  0  0
   -1.1356   -0.7609   -0.0121 C   0  0  0  0  0  0  0  0  0  0  0  0
   -2.1729   -0.2226   -0.8458 N   0  0  0  0  0  4  0  0  0  0  0  0
   -3.2747    0.3121   -0.0291 C   0  0  0  0  0  0  0  0  0  0  0  0
   -4.0491    1.2456   -0.9493 C   0  0  0  0  0  0  0  0  0  0  0  0
   -3.1330    2.2389   -1.3532 O   0  0  0  0  0  0  0  0  0  0  0  0
    0.2102   -0.4031   -0.7021 C   0  0  0  0  0  0  0  0  0  0  0  0
    0.1179   -0.8904   -2.1459 C   0  0  0  0  0  0  0  0  0  0  0  0
    1.2701   -0.8467   -0.0240 O   0  0  0  0  0  0  0  0  0  0  0  0
    2.3637   -0.5269    0.6402 C   0  0  0  0  0  0  0  0  0  0  0  0
    3.1723   -1.5498    1.1903 C   0  0  0  0  0  0  0  0  0  0  0  0
    4.2919   -1.2746    1.8731 N   0  0  0  0  0  0  0  0  0  0  0  0
    4.7222   -0.0622    2.0840 N   0  0  0  0  0  0  0  0  0  0  0  0
    4.0033    0.9540    1.5899 C   0  0  0  0  0  0  0  0  0  0  0  0
    4.3758    2.1374    1.7661 O   0  0  0  0  0  0  0  0  0  0  0  0
    2.8236    0.7489    0.8663 C   0  0  0  0  0  0  0  0  0  0  0  0
    2.1084    1.9551    0.3635 C   0  0  0  0  0  0  0  0  0  0  0  0
  1  2  1  0
  2  3  1  0
  3  4  1  0
  4  5  1  0
  5  6  1  0
  2  7  1  0
  7  8  1  0
  7  9  1  0
  9 10  1  0
 10 11  1  0
 11 12  2  0
 12 13  1  0
 13 14  1  0
 14 15  2  0
 14 16  1  0
 16 17  1  0
 16 10  2  0
M  CHG  1   3   1
M  END

