CC(O)(CC1([NH3+])CCC2=C1CCC2)C#N
     RDKit          3D

 15 16  0  0  0  0  0  0  0  0999 V2000
    3.2579   -0.6877   -0.2839 C   0  0  0  0  0  0  0  0  0  0  0  0
    2.6304    0.6558    0.0166 C   0  0  0  0  0  0  0  0  0  0  0  0
    3.3377    1.5797   -0.7975 O   0  0  0  0  0  0  0  0  0  0  0  0
    1.2239    0.7394   -0.3666 C   0  0  0  0  0  0  0  0  0  0  0  0
    0.2124   -0.1510    0.2017 C   0  0  0  0  0  0  0  0  0  0  0  0
    0.3889   -1.5645   -0.0132 N   0  0  0  0  0  4  0  0  0  0  0  0
   -0.0787    0.0426    1.6639 C   0  0  0  0  0  0  0  0  0  0  0  0
   -1.5277   -0.4408    1.7857 C   0  0  0  0  0  0  0  0  0  0  0  0
   -2.1010   -0.1734    0.4387 C   0  0  0  0  0  0  0  0  0  0  0  0
   -1.1201    0.2033   -0.4067 C   0  0  0  0  0  0  0  0  0  0  0  0
   -1.7645    0.8178   -1.6014 C   0  0  0  0  0  0  0  0  0  0  0  0
   -3.1267    0.1907   -1.6671 C   0  0  0  0  0  0  0  0  0  0  0  0
   -3.4045   -0.1918   -0.2585 C   0  0  0  0  0  0  0  0  0  0  0  0
    2.8378    0.9610    1.4305 C   0  0  0  0  0  0  0  0  0  0  0  0
    2.9996    1.1998    2.5452 N   0  0  0  0  0  0  0  0  0  0  0  0
  1  2  1  0
  2  3  1  0
  2  4  1  0
  4  5  1  0
  5  6  1  0
  5  7  1  0
  7  8  1  0
  8  9  1  0
  9 10  2  0
 10 11  1  0
 11 12  1  0
 12 13  1  0
  2 14  1  0
 14 15  3  0
 10  5  1  0
 13  9  1  0
M  CHG  1   6   1
M  END

