CC(O)C(C)C(CC=C)C(C)(C)[N]
     RDKit          3D

 13 12  0  0  0  0  0  0  0  0999 V2000
    3.2925    0.4625    0.3787 C   0  0  0  0  0  0  0  0  0  0  0  0
    1.8143    0.9138    0.5104 C   0  0  0  0  0  0  0  0  0  0  0  0
    1.6945    1.9284   -0.4432 O   0  0  0  0  0  0  0  0  0  0  0  0
    0.9453   -0.2172    0.0965 C   0  0  0  0  0  0  0  0  0  0  0  0
    1.2715   -0.5102   -1.3502 C   0  0  0  0  0  0  0  0  0  0  0  0
   -0.4420   -0.2954    0.5336 C   0  0  0  0  0  0  0  0  0  0  0  0
   -1.4420    0.7425    0.1968 C   0  0  0  0  0  0  0  0  0  0  0  0
   -1.1758    2.1276    0.6649 C   0  0  0  0  0  0  0  0  0  0  0  0
   -1.1927    3.1012   -0.2314 C   0  0  0  0  0  0  0  0  0  0  0  0
   -1.0919   -1.6533    0.3993 C   0  0  0  0  0  0  0  0  0  0  0  0
   -2.5260   -1.6341    0.8968 C   0  0  0  0  0  0  0  0  0  0  0  0
   -1.1766   -2.2109   -0.9810 C   0  0  0  0  0  0  0  0  0  0  0  0
   -0.4262   -2.6526    1.2344 N   0  0  0  0  0  1  0  0  0  0  0  0
  1  2  1  0
  2  3  1  0
  2  4  1  0
  4  5  1  0
  4  6  1  0
  6  7  1  0
  7  8  1  0
  8  9  2  0
  6 10  1  0
 10 11  1  0
 10 12  1  0
 10 13  1  0
M  RAD  1  13   3
M  END

