CC(O)C(C)COC(=O)OCC=CC[N]
     RDKit          3D

 15 14  0  0  0  0  0  0  0  0999 V2000
   -4.3573    1.3256   -0.2658 C   0  0  0  0  0  0  0  0  0  0  0  0
   -2.9341    0.8325   -0.4055 C   0  0  0  0  0  0  0  0  0  0  0  0
   -2.5932    0.7808   -1.7355 O   0  0  0  0  0  0  0  0  0  0  0  0
   -2.7690   -0.5058    0.2852 C   0  0  0  0  0  0  0  0  0  0  0  0
   -3.7098   -1.5083   -0.3511 C   0  0  0  0  0  0  0  0  0  0  0  0
   -1.3837   -1.0387    0.1712 C   0  0  0  0  0  0  0  0  0  0  0  0
   -0.4122   -0.1727    0.7481 O   0  0  0  0  0  0  0  0  0  0  0  0
    0.9443   -0.5126    0.7328 C   0  0  0  0  0  0  0  0  0  0  0  0
    1.2092   -1.6235    0.1763 O   0  0  0  0  0  0  0  0  0  0  0  0
    1.9162    0.3082    1.2859 O   0  0  0  0  0  0  0  0  0  0  0  0
    3.2876   -0.1141    1.2274 C   0  0  0  0  0  0  0  0  0  0  0  0
    3.7640   -0.2841   -0.1320 C   0  0  0  0  0  0  0  0  0  0  0  0
    4.7525    0.3425   -0.7051 C   0  0  0  0  0  0  0  0  0  0  0  0
    5.5746    1.3627   -0.0366 C   0  0  0  0  0  0  0  0  0  0  0  0
    5.4813    2.6436   -0.7421 N   0  0  0  0  0  1  0  0  0  0  0  0
  1  2  1  0
  2  3  1  0
  2  4  1  0
  4  5  1  0
  4  6  1  0
  6  7  1  0
  7  8  1  0
  8  9  2  0
  8 10  1  0
 10 11  1  0
 11 12  1  0
 12 13  2  3
 13 14  1  0
 14 15  1  0
M  RAD  1  15   3
M  END

