CC1=CC(=NN1)C(=O)N/N=C\C2=C(C=CC(=C2)Br)O
     RDKit          3D

 19 20  0  0  0  0  0  0  0  0999 V2000
    5.0979    0.2411   -2.0626 C   0  0  0  0  0  0  0  0  0  0  0  0
    3.9697    0.3615   -1.0781 C   0  0  0  0  0  0  0  0  0  0  0  0
    2.8418    1.0969   -1.3167 C   0  0  0  0  0  0  0  0  0  0  0  0
    2.0390    0.9776   -0.2086 C   0  0  0  0  0  0  0  0  0  0  0  0
    2.7214    0.1780    0.6408 N   0  0  0  0  0  0  0  0  0  0  0  0
    3.8784   -0.1923    0.1218 N   0  0  0  0  0  0  0  0  0  0  0  0
    0.7398    1.5479    0.0670 C   0  0  0  0  0  0  0  0  0  0  0  0
    0.1975    2.2708   -0.7821 O   0  0  0  0  0  0  0  0  0  0  0  0
    0.0654    1.2988    1.2939 N   0  0  0  0  0  0  0  0  0  0  0  0
   -1.1061    1.8133    1.5417 N   0  0  0  0  0  0  0  0  0  0  0  0
   -2.2595    1.4247    1.4620 C   0  0  0  0  0  0  0  0  0  0  0  0
   -2.7024    0.1385    1.0232 C   0  0  0  0  0  0  0  0  0  0  0  0
   -2.0308   -0.9680    0.6678 C   0  0  0  0  0  0  0  0  0  0  0  0
   -2.6509   -2.1358    0.1971 C   0  0  0  0  0  0  0  0  0  0  0  0
   -4.0164   -2.2177    0.0702 C   0  0  0  0  0  0  0  0  0  0  0  0
   -4.7222   -1.0969    0.4297 C   0  0  0  0  0  0  0  0  0  0  0  0
   -4.1047    0.0355    0.8870 C   0  0  0  0  0  0  0  0  0  0  0  0
   -6.6174   -1.1770    0.2600 Br  0  0  0  0  0  0  0  0  0  0  0  0
   -0.6761   -1.0235    0.7489 O   0  0  0  0  0  0  0  0  0  0  0  0
  1  2  1  0
  2  3  2  0
  3  4  1  0
  4  5  2  0
  5  6  1  0
  4  7  1  0
  7  8  2  0
  7  9  1  0
  9 10  1  0
 10 11  2  0
 11 12  1  0
 12 13  2  0
 13 14  1  0
 14 15  2  0
 15 16  1  0
 16 17  2  0
 16 18  1  0
 13 19  1  0
  6  2  1  0
 17 12  1  0
M  END

