CC(NC(=O)C(C[NH3+])CO)C(C)C#N
     RDKit          3D

 14 13  0  0  0  0  0  0  0  0999 V2000
   -2.6497    0.7270   -1.6388 C   0  0  0  0  0  0  0  0  0  0  0  0
   -1.8834    0.4908   -0.3797 C   0  0  0  0  0  0  0  0  0  0  0  0
   -0.5462   -0.0142   -0.6186 N   0  0  0  0  0  0  0  0  0  0  0  0
    0.6220    0.6690   -0.2187 C   0  0  0  0  0  0  0  0  0  0  0  0
    0.5113    1.7641    0.3713 O   0  0  0  0  0  0  0  0  0  0  0  0
    1.9689    0.1300   -0.4758 C   0  0  0  0  0  0  0  0  0  0  0  0
    2.1587   -1.2312    0.1984 C   0  0  0  0  0  0  0  0  0  0  0  0
    3.4883   -1.7443   -0.0658 N   0  0  0  0  0  4  0  0  0  0  0  0
    3.0386    1.1015   -0.0040 C   0  0  0  0  0  0  0  0  0  0  0  0
    2.8804    2.2999   -0.6977 O   0  0  0  0  0  0  0  0  0  0  0  0
   -2.5958   -0.4663    0.5099 C   0  0  0  0  0  0  0  0  0  0  0  0
   -3.9633   -0.0073    0.9299 C   0  0  0  0  0  0  0  0  0  0  0  0
   -1.8329   -0.7416    1.7300 C   0  0  0  0  0  0  0  0  0  0  0  0
   -1.2349   -0.9784    2.6911 N   0  0  0  0  0  0  0  0  0  0  0  0
  1  2  1  0
  2  3  1  0
  3  4  1  0
  4  5  2  0
  4  6  1  0
  6  7  1  0
  7  8  1  0
  6  9  1  0
  9 10  1  0
  2 11  1  0
 11 12  1  0
 11 13  1  0
 13 14  3  0
M  CHG  1   8   1
M  END

