C1=C(C=NC(=C1F)CBr)C#N
     RDKit          3D

 11 11  0  0  0  0  0  0  0  0999 V2000
    0.9579    0.5330    0.9726 C   0  0  0  0  0  0  0  0  0  0  0  0
    1.7281   -0.3151    0.1913 C   0  0  0  0  0  0  0  0  0  0  0  0
    1.0587   -0.9419   -0.8531 C   0  0  0  0  0  0  0  0  0  0  0  0
   -0.2497   -0.7442   -1.0996 N   0  0  0  0  0  0  0  0  0  0  0  0
   -1.0133    0.0781   -0.3496 C   0  0  0  0  0  0  0  0  0  0  0  0
   -0.3904    0.7175    0.6932 C   0  0  0  0  0  0  0  0  0  0  0  0
   -1.1081    1.5654    1.4849 F   0  0  0  0  0  0  0  0  0  0  0  0
   -2.4660    0.2775   -0.6536 C   0  0  0  0  0  0  0  0  0  0  0  0
   -3.6145   -0.6737    0.5439 Br  0  0  0  0  0  0  0  0  0  0  0  0
    3.1279   -0.5400    0.4280 C   0  0  0  0  0  0  0  0  0  0  0  0
    4.2761   -0.7018    0.6186 N   0  0  0  0  0  0  0  0  0  0  0  0
  1  2  2  0
  2  3  1  0
  3  4  2  0
  4  5  1  0
  5  6  2  0
  6  7  1  0
  5  8  1  0
  8  9  1  0
  2 10  1  0
 10 11  3  0
  6  1  1  0
M  END

