CC(=O)CC1=NSC(=N1)N(CC2=CC=CC=C2)C3=CC=CC=C3
     RDKit          3D

 23 25  0  0  0  0  0  0  0  0999 V2000
    6.2928    1.7346   -1.0503 C   0  0  0  0  0  0  0  0  0  0  0  0
    5.0808    1.4541   -0.2517 C   0  0  0  0  0  0  0  0  0  0  0  0
    4.4549    2.4051    0.2090 O   0  0  0  0  0  0  0  0  0  0  0  0
    4.6286    0.0819   -0.0096 C   0  0  0  0  0  0  0  0  0  0  0  0
    3.3698    0.0583    0.8314 C   0  0  0  0  0  0  0  0  0  0  0  0
    3.4433    0.0311    2.1636 N   0  0  0  0  0  0  0  0  0  0  0  0
    1.8266    0.0146    2.6320 S   0  0  0  0  0  0  0  0  0  0  0  0
    1.1224    0.0436    1.0809 C   0  0  0  0  0  0  0  0  0  0  0  0
    2.1857    0.0644    0.2908 N   0  0  0  0  0  0  0  0  0  0  0  0
   -0.2740    0.0458    0.7027 N   0  0  0  0  0  0  0  0  0  0  0  0
   -0.8890    1.3217    0.5609 C   0  0  0  0  0  0  0  0  0  0  0  0
   -2.3031    1.2830    0.1754 C   0  0  0  0  0  0  0  0  0  0  0  0
   -2.7365    1.2839   -1.1314 C   0  0  0  0  0  0  0  0  0  0  0  0
   -4.0823    1.2467   -1.4539 C   0  0  0  0  0  0  0  0  0  0  0  0
   -5.0236    1.2075   -0.4640 C   0  0  0  0  0  0  0  0  0  0  0  0
   -4.6311    1.2053    0.8395 C   0  0  0  0  0  0  0  0  0  0  0  0
   -3.2707    1.2431    1.1581 C   0  0  0  0  0  0  0  0  0  0  0  0
   -0.8698   -1.2178    0.5168 C   0  0  0  0  0  0  0  0  0  0  0  0
   -1.4687   -1.8413    1.5787 C   0  0  0  0  0  0  0  0  0  0  0  0
   -2.0430   -3.0825    1.3556 C   0  0  0  0  0  0  0  0  0  0  0  0
   -2.0279   -3.6923    0.1220 C   0  0  0  0  0  0  0  0  0  0  0  0
   -1.4117   -3.0233   -0.9177 C   0  0  0  0  0  0  0  0  0  0  0  0
   -0.8301   -1.7859   -0.7295 C   0  0  0  0  0  0  0  0  0  0  0  0
  1  2  1  0
  2  3  2  0
  2  4  1  0
  4  5  1  0
  5  6  2  0
  6  7  1  0
  7  8  1  0
  8  9  2  0
  8 10  1  0
 10 11  1  0
 11 12  1  0
 12 13  2  0
 13 14  1  0
 14 15  2  0
 15 16  1  0
 16 17  2  0
 10 18  1  0
 18 19  2  0
 19 20  1  0
 20 21  2  0
 21 22  1  0
 22 23  2  0
  9  5  1  0
 17 12  1  0
 23 18  1  0
M  END

