CC12C=CCC1=NNC1=NSN=C21
     RDKit          3D

 13 15  0  0  0  0  0  0  0  0999 V2000
   -0.2056    1.6753    0.4653 C   0  0  0  0  0  0  0  0  0  0  0  0
   -0.0225    0.3087   -0.1826 C   0  0  0  0  0  0  0  0  0  0  0  0
   -0.8231    0.3134   -1.4114 C   0  0  0  0  0  0  0  0  0  0  0  0
   -2.0992    0.0317   -1.0601 C   0  0  0  0  0  0  0  0  0  0  0  0
   -2.1592   -0.1730    0.4532 C   0  0  0  0  0  0  0  0  0  0  0  0
   -0.7501   -0.7074    0.6288 C   0  0  0  0  0  0  0  0  0  0  0  0
   -0.1617   -1.6859    1.1660 N   0  0  0  0  0  0  0  0  0  0  0  0
    1.1927   -1.9571    1.0725 N   0  0  0  0  0  0  0  0  0  0  0  0
    2.0006   -1.0458    0.2802 C   0  0  0  0  0  0  0  0  0  0  0  0
    3.3178   -1.2060    0.0955 N   0  0  0  0  0  0  0  0  0  0  0  0
    3.7597    0.0649   -0.8953 S   0  0  0  0  0  0  0  0  0  0  0  0
    2.2625    0.7862   -1.0629 N   0  0  0  0  0  0  0  0  0  0  0  0
    1.4290    0.0167   -0.3348 C   0  0  0  0  0  0  0  0  0  0  0  0
  1  2  1  0
  2  3  1  0
  3  4  2  0
  4  5  1  0
  5  6  1  0
  6  7  2  0
  7  8  1  0
  8  9  1  0
  9 10  2  0
 10 11  1  0
 11 12  1  0
 12 13  2  0
  6  2  1  0
 13  9  1  0
 13  2  1  0
M  END

