CCOC(=O)CC1=CSC(=N1)/C(=N\O)/C(=O)N
     RDKit          3D

 17 17  0  0  0  0  0  0  0  0999 V2000
    5.3524   -0.3442   -0.2368 C   0  0  0  0  0  0  0  0  0  0  0  0
    4.2862   -0.9757    0.5973 C   0  0  0  0  0  0  0  0  0  0  0  0
    3.1663   -0.1883    0.8648 O   0  0  0  0  0  0  0  0  0  0  0  0
    2.2819    0.3052   -0.0582 C   0  0  0  0  0  0  0  0  0  0  0  0
    2.4340    0.0556   -1.2783 O   0  0  0  0  0  0  0  0  0  0  0  0
    1.1357    1.1432    0.4430 C   0  0  0  0  0  0  0  0  0  0  0  0
   -0.1319    0.3208    0.3591 C   0  0  0  0  0  0  0  0  0  0  0  0
   -0.1072   -0.9674    0.8567 C   0  0  0  0  0  0  0  0  0  0  0  0
   -1.7220   -1.4568    0.6210 S   0  0  0  0  0  0  0  0  0  0  0  0
   -2.3251   -0.0220   -0.0842 C   0  0  0  0  0  0  0  0  0  0  0  0
   -1.2519    0.7594   -0.1014 N   0  0  0  0  0  0  0  0  0  0  0  0
   -3.6951    0.2831   -0.5017 C   0  0  0  0  0  0  0  0  0  0  0  0
   -3.9671    1.4117   -1.0497 N   0  0  0  0  0  0  0  0  0  0  0  0
   -3.0209    2.3870   -1.2807 O   0  0  0  0  0  0  0  0  0  0  0  0
   -4.7318   -0.6944   -0.2526 C   0  0  0  0  0  0  0  0  0  0  0  0
   -4.3966   -1.8073    0.2772 O   0  0  0  0  0  0  0  0  0  0  0  0
   -6.0947   -0.5130   -0.5514 N   0  0  0  0  0  0  0  0  0  0  0  0
  1  2  1  0
  2  3  1  0
  3  4  1  0
  4  5  2  0
  4  6  1  0
  6  7  1  0
  7  8  2  0
  8  9  1  0
  9 10  1  0
 10 11  2  0
 10 12  1  0
 12 13  2  0
 13 14  1  0
 12 15  1  0
 15 16  2  0
 15 17  1  0
 11  7  1  0
M  END

