C1=CNC(=O)C=C1OCC(=O)O
     RDKit          3D

 12 12  0  0  0  0  0  0  0  0999 V2000
   -0.5869    0.7193   -0.0167 C   0  0  0  0  0  0  0  0  0  0  0  0
   -1.8992    1.1810    0.1772 C   0  0  0  0  0  0  0  0  0  0  0  0
   -2.9035    0.3370    0.4186 N   0  0  0  0  0  0  0  0  0  0  0  0
   -2.6455   -0.9748    0.4753 C   0  0  0  0  0  0  0  0  0  0  0  0
   -3.6271   -1.7366    0.7061 O   0  0  0  0  0  0  0  0  0  0  0  0
   -1.3724   -1.4710    0.2912 C   0  0  0  0  0  0  0  0  0  0  0  0
   -0.3060   -0.6246    0.0390 C   0  0  0  0  0  0  0  0  0  0  0  0
    0.9485   -1.1559   -0.1373 O   0  0  0  0  0  0  0  0  0  0  0  0
    2.1387   -0.4895   -0.3815 C   0  0  0  0  0  0  0  0  0  0  0  0
    2.5222    0.4237    0.7157 C   0  0  0  0  0  0  0  0  0  0  0  0
    1.7947    0.4609    1.7368 O   0  0  0  0  0  0  0  0  0  0  0  0
    3.6355    1.2407    0.6855 O   0  0  0  0  0  0  0  0  0  0  0  0
  1  2  2  0
  2  3  1  0
  3  4  1  0
  4  5  2  0
  4  6  1  0
  6  7  2  0
  7  8  1  0
  8  9  1  0
  9 10  1  0
 10 11  2  0
 10 12  1  0
  7  1  1  0
M  END

