CC1=NN(C2=C1C=CC=C2NN)C
     RDKit          3D

 13 14  0  0  0  0  0  0  0  0999 V2000
    3.5566    0.2186   -0.4192 C   0  0  0  0  0  0  0  0  0  0  0  0
    2.1225    0.4808   -0.2110 C   0  0  0  0  0  0  0  0  0  0  0  0
    1.4941    1.6023    0.1814 N   0  0  0  0  0  0  0  0  0  0  0  0
    0.1686    1.4067    0.2427 N   0  0  0  0  0  0  0  0  0  0  0  0
   -0.1242    0.1421   -0.1091 C   0  0  0  0  0  0  0  0  0  0  0  0
    1.0927   -0.4390   -0.3931 C   0  0  0  0  0  0  0  0  0  0  0  0
    1.0810   -1.7630   -0.7883 C   0  0  0  0  0  0  0  0  0  0  0  0
   -0.0838   -2.4857   -0.8993 C   0  0  0  0  0  0  0  0  0  0  0  0
   -1.2717   -1.8571   -0.6037 C   0  0  0  0  0  0  0  0  0  0  0  0
   -1.3285   -0.5249   -0.1998 C   0  0  0  0  0  0  0  0  0  0  0  0
   -2.5759    0.0676    0.0914 N   0  0  0  0  0  0  0  0  0  0  0  0
   -3.0989    0.0131    1.3713 N   0  0  0  0  0  0  0  0  0  0  0  0
   -0.8195    2.3890    0.6260 C   0  0  0  0  0  0  0  0  0  0  0  0
  1  2  1  0
  2  3  2  0
  3  4  1  0
  4  5  1  0
  5  6  2  0
  6  7  1  0
  7  8  2  0
  8  9  1  0
  9 10  2  0
 10 11  1  0
 11 12  1  0
  4 13  1  0
  6  2  1  0
 10  5  1  0
M  END

