CC(O)C(=O)NCC([N])CCCCCC(C)C
     RDKit          3D

 17 16  0  0  0  0  0  0  0  0999 V2000
    4.9001   -0.5797    2.0065 C   0  0  0  0  0  0  0  0  0  0  0  0
    5.1397    0.1732    0.7111 C   0  0  0  0  0  0  0  0  0  0  0  0
    5.0366    1.5480    0.9417 O   0  0  0  0  0  0  0  0  0  0  0  0
    4.1082   -0.2682   -0.2552 C   0  0  0  0  0  0  0  0  0  0  0  0
    4.0637   -1.4756   -0.5710 O   0  0  0  0  0  0  0  0  0  0  0  0
    3.2068    0.6720   -0.7938 N   0  0  0  0  0  0  0  0  0  0  0  0
    2.1787    0.2883   -1.7387 C   0  0  0  0  0  0  0  0  0  0  0  0
    1.2406   -0.6973   -1.1416 C   0  0  0  0  0  0  0  0  0  0  0  0
    0.6230   -0.0745    0.0259 N   0  0  0  0  0  1  0  0  0  0  0  0
    0.1733   -1.1788   -2.0757 C   0  0  0  0  0  0  0  0  0  0  0  0
   -0.7367   -0.1613   -2.6346 C   0  0  0  0  0  0  0  0  0  0  0  0
   -1.5544    0.6239   -1.6700 C   0  0  0  0  0  0  0  0  0  0  0  0
   -2.4765   -0.2169   -0.8263 C   0  0  0  0  0  0  0  0  0  0  0  0
   -3.2252    0.7309    0.0922 C   0  0  0  0  0  0  0  0  0  0  0  0
   -4.1882   -0.0059    0.9934 C   0  0  0  0  0  0  0  0  0  0  0  0
   -4.8757    1.0274    1.8601 C   0  0  0  0  0  0  0  0  0  0  0  0
   -3.4659   -0.9708    1.8940 C   0  0  0  0  0  0  0  0  0  0  0  0
  1  2  1  0
  2  3  1  0
  2  4  1  0
  4  5  2  0
  4  6  1  0
  6  7  1  0
  7  8  1  0
  8  9  1  0
  8 10  1  0
 10 11  1  0
 11 12  1  0
 12 13  1  0
 13 14  1  0
 14 15  1  0
 15 16  1  0
 15 17  1  0
M  RAD  1   9   3
M  END

