C1=C(NC(=O)C=N1)/C(=N/O)/N
     RDKit          3D

 11 11  0  0  0  0  0  0  0  0999 V2000
    0.6337    1.4552   -0.4318 C   0  0  0  0  0  0  0  0  0  0  0  0
    0.1528    0.1920   -0.1937 C   0  0  0  0  0  0  0  0  0  0  0  0
    1.0406   -0.7834    0.0413 N   0  0  0  0  0  0  0  0  0  0  0  0
    2.3842   -0.5462    0.0475 C   0  0  0  0  0  0  0  0  0  0  0  0
    3.1886   -1.4878    0.2722 O   0  0  0  0  0  0  0  0  0  0  0  0
    2.8360    0.7315   -0.1948 C   0  0  0  0  0  0  0  0  0  0  0  0
    1.9545    1.7262   -0.4334 N   0  0  0  0  0  0  0  0  0  0  0  0
   -1.2846   -0.1106   -0.1903 C   0  0  0  0  0  0  0  0  0  0  0  0
   -2.1719    0.7986   -0.4118 N   0  0  0  0  0  0  0  0  0  0  0  0
   -3.5267    0.5469   -0.4155 O   0  0  0  0  0  0  0  0  0  0  0  0
   -1.7687   -1.4250    0.0582 N   0  0  0  0  0  0  0  0  0  0  0  0
  1  2  2  0
  2  3  1  0
  3  4  1  0
  4  5  2  0
  4  6  1  0
  6  7  2  0
  2  8  1  0
  8  9  2  0
  9 10  1  0
  8 11  1  0
  7  1  1  0
M  END

