CC(O)C(COCCC)C(=O)CC#N
     RDKit          3D

 14 13  0  0  0  0  0  0  0  0999 V2000
   -1.9489   -2.1180   -0.8056 C   0  0  0  0  0  0  0  0  0  0  0  0
   -2.1375   -1.4667    0.5087 C   0  0  0  0  0  0  0  0  0  0  0  0
   -3.5100   -1.1651    0.6490 O   0  0  0  0  0  0  0  0  0  0  0  0
   -1.3960   -0.1579    0.7148 C   0  0  0  0  0  0  0  0  0  0  0  0
    0.1052   -0.3951    0.5812 C   0  0  0  0  0  0  0  0  0  0  0  0
    0.7573    0.8001    0.7834 O   0  0  0  0  0  0  0  0  0  0  0  0
    2.1391    0.6874    0.7201 C   0  0  0  0  0  0  0  0  0  0  0  0
    2.5408    0.1851   -0.6363 C   0  0  0  0  0  0  0  0  0  0  0  0
    4.0539    0.1063   -0.6656 C   0  0  0  0  0  0  0  0  0  0  0  0
   -1.8137    0.7954   -0.3047 C   0  0  0  0  0  0  0  0  0  0  0  0
   -2.5283    0.3497   -1.2297 O   0  0  0  0  0  0  0  0  0  0  0  0
   -1.5147    2.2272   -0.4177 C   0  0  0  0  0  0  0  0  0  0  0  0
   -1.0226    2.8645    0.7671 C   0  0  0  0  0  0  0  0  0  0  0  0
   -0.6458    3.3950    1.7173 N   0  0  0  0  0  0  0  0  0  0  0  0
  1  2  1  0
  2  3  1  0
  2  4  1  0
  4  5  1  0
  5  6  1  0
  6  7  1  0
  7  8  1  0
  8  9  1  0
  4 10  1  0
 10 11  2  0
 10 12  1  0
 12 13  1  0
 13 14  3  0
M  END

