CC=C1C2OC2C(O)(CN)C1O
     RDKit          3D

 12 13  0  0  0  0  0  0  0  0999 V2000
   -3.1778    0.2743    0.7807 C   0  0  0  0  0  0  0  0  0  0  0  0
   -2.5148    0.2605   -0.5536 C   0  0  0  0  0  0  0  0  0  0  0  0
   -1.2278   -0.0258   -0.6578 C   0  0  0  0  0  0  0  0  0  0  0  0
   -0.4823   -0.0633   -1.9484 C   0  0  0  0  0  0  0  0  0  0  0  0
    0.2350   -1.3890   -1.9937 O   0  0  0  0  0  0  0  0  0  0  0  0
    0.8533   -0.1301   -1.6815 C   0  0  0  0  0  0  0  0  0  0  0  0
    1.0682    0.0919   -0.1952 C   0  0  0  0  0  0  0  0  0  0  0  0
    1.2676    1.4324    0.0264 O   0  0  0  0  0  0  0  0  0  0  0  0
    2.2328   -0.7727    0.2172 C   0  0  0  0  0  0  0  0  0  0  0  0
    2.5499   -0.6646    1.6185 N   0  0  0  0  0  0  0  0  0  0  0  0
   -0.2403   -0.3632    0.3902 C   0  0  0  0  0  0  0  0  0  0  0  0
   -0.4514    0.2789    1.5863 O   0  0  0  0  0  0  0  0  0  0  0  0
  1  2  1  0
  2  3  2  3
  3  4  1  0
  4  5  1  0
  5  6  1  0
  6  7  1  0
  7  8  1  0
  7  9  1  0
  9 10  1  0
  7 11  1  0
 11 12  1  0
 11  3  1  0
  6  4  1  0
M  END

