CC=CC(C#N)C(O)(C=O)C=CC
     RDKit          3D

 13 12  0  0  0  0  0  0  0  0999 V2000
   -4.0933   -0.4239    0.0841 C   0  0  0  0  0  0  0  0  0  0  0  0
   -2.6920    0.1117    0.0504 C   0  0  0  0  0  0  0  0  0  0  0  0
   -1.7697   -0.2750    0.9253 C   0  0  0  0  0  0  0  0  0  0  0  0
   -0.4273    0.3055    0.8112 C   0  0  0  0  0  0  0  0  0  0  0  0
   -0.4084    1.3904   -0.1480 C   0  0  0  0  0  0  0  0  0  0  0  0
   -0.4131    2.2722   -0.9113 N   0  0  0  0  0  0  0  0  0  0  0  0
    0.6559   -0.7175    0.5739 C   0  0  0  0  0  0  0  0  0  0  0  0
    0.6023   -1.5808    1.6933 O   0  0  0  0  0  0  0  0  0  0  0  0
    0.4286   -1.4993   -0.6663 C   0  0  0  0  0  0  0  0  0  0  0  0
    0.3775   -1.0370   -1.7768 O   0  0  0  0  0  0  0  0  0  0  0  0
    1.9436    0.0074    0.5528 C   0  0  0  0  0  0  0  0  0  0  0  0
    2.3784    0.6542   -0.4934 C   0  0  0  0  0  0  0  0  0  0  0  0
    3.6871    1.3864   -0.5034 C   0  0  0  0  0  0  0  0  0  0  0  0
  1  2  1  0
  2  3  2  3
  3  4  1  0
  4  5  1  0
  5  6  3  0
  4  7  1  0
  7  8  1  0
  7  9  1  0
  9 10  2  0
  7 11  1  0
 11 12  2  3
 12 13  1  0
M  END

