
     RDKit          3D

 13 12  0  0  0  0  0  0  0  0999 V2000
   -0.7957    3.4395    0.1508 C   0  0  0  0  0  0  0  0  0  0  0  0
   -1.0750    1.9650   -0.0787 C   0  0  0  0  0  0  0  0  0  0  0  0
   -0.3789    1.2681    0.9048 O   0  0  0  0  0  0  0  0  0  0  0  0
   -0.6012   -0.4034    0.7690 P   0  0  0  0  0  5  0  0  0  0  0  0
   -0.7828   -0.9302    2.1895 O   0  0  0  0  0  0  0  0  0  0  0  0
    0.7601   -1.1722    0.1139 O   0  0  0  0  0  0  0  0  0  0  0  0
    1.9948   -0.5455    0.1375 C   0  0  0  0  0  0  0  0  0  0  0  0
    2.0540    0.5976    0.6580 O   0  0  0  0  0  0  0  0  0  0  0  0
    3.1940   -1.1932   -0.4258 C   0  0  0  0  0  0  0  0  0  0  0  0
    4.3479   -0.5565   -0.3799 C   0  0  0  0  0  0  0  0  0  0  0  0
   -2.0127   -0.7793   -0.0893 O   0  0  0  0  0  0  0  0  0  0  0  0
   -1.9165   -1.9021   -0.7416 O   0  0  0  0  0  0  0  0  0  0  0  0
   -2.9198   -2.7807   -0.3401 C   0  0  0  0  0  0  0  0  0  0  0  0
  1  2  1  0
  2  3  1  0
  3  4  1  0
  4  5  2  0
  4  6  1  0
  6  7  1  0
  7  8  2  0
  7  9  1  0
  9 10  2  0
  4 11  1  0
 11 12  1  0
 12 13  1  0
M  END

