
     RDKit          3D

 25 27  0  0  0  0  0  0  0  0999 V2000
    8.3121    0.0249   -1.8788 C   0  0  0  0  0  0  0  0  0  0  0  0
    7.0432    0.3186   -2.4573 O   0  0  0  0  0  0  0  0  0  0  0  0
    5.9118    0.0895   -1.6732 C   0  0  0  0  0  0  0  0  0  0  0  0
    4.6477    0.3496   -2.1635 C   0  0  0  0  0  0  0  0  0  0  0  0
    3.5283    0.1196   -1.3790 C   0  0  0  0  0  0  0  0  0  0  0  0
    3.6483   -0.3700   -0.0990 C   0  0  0  0  0  0  0  0  0  0  0  0
    4.9168   -0.6401    0.4156 C   0  0  0  0  0  0  0  0  0  0  0  0
    6.0046   -0.4058   -0.3767 C   0  0  0  0  0  0  0  0  0  0  0  0
    2.5205   -0.5784    0.7144 N   0  0  0  0  0  0  0  0  0  0  0  0
    1.2738    0.0896    0.6399 C   0  0  0  0  0  0  0  0  0  0  0  0
    0.1290   -0.5486    1.1338 C   0  0  0  0  0  0  0  0  0  0  0  0
   -1.1160    0.0408    1.1256 C   0  0  0  0  0  0  0  0  0  0  0  0
   -1.2784    1.3195    0.6149 C   0  0  0  0  0  0  0  0  0  0  0  0
   -0.1606    1.9613    0.1248 C   0  0  0  0  0  0  0  0  0  0  0  0
    1.1026    1.3585    0.1352 C   0  0  0  0  0  0  0  0  0  0  0  0
   -0.3243    3.5807   -0.5313 Cl  0  0  0  0  0  0  0  0  0  0  0  0
   -2.2096   -0.6711    1.6762 N   0  0  0  0  0  0  0  0  0  0  0  0
   -3.5663   -0.4991    1.3288 C   0  0  0  0  0  0  0  0  0  0  0  0
   -4.5371   -0.8549    2.2733 C   0  0  0  0  0  0  0  0  0  0  0  0
   -5.8702   -0.7329    1.9731 C   0  0  0  0  0  0  0  0  0  0  0  0
   -6.3024   -0.2672    0.7609 C   0  0  0  0  0  0  0  0  0  0  0  0
   -5.3576    0.0855   -0.1763 C   0  0  0  0  0  0  0  0  0  0  0  0
   -3.9921   -0.0320    0.1105 C   0  0  0  0  0  0  0  0  0  0  0  0
   -7.6427   -0.1422    0.4540 O   0  0  0  0  0  0  0  0  0  0  0  0
   -8.0632    0.3422   -0.8071 C   0  0  0  0  0  0  0  0  0  0  0  0
  1  2  1  0
  2  3  1  0
  3  4  2  0
  4  5  1  0
  5  6  2  0
  6  7  1  0
  7  8  2  0
  6  9  1  0
  9 10  1  0
 10 11  2  0
 11 12  1  0
 12 13  2  0
 13 14  1  0
 14 15  2  0
 14 16  1  0
 12 17  1  0
 17 18  1  0
 18 19  2  0
 19 20  1  0
 20 21  2  0
 21 22  1  0
 22 23  2  0
 21 24  1  0
 24 25  1  0
  8  3  1  0
 15 10  1  0
 23 18  1  0
M  END

