
     RDKit          3D

 11 11  0  0  0  0  0  0  0  0999 V2000
    2.1585    0.7504   -0.4582 C   0  0  0  0  0  0  0  0  0  0  0  0
    0.8325    0.9761   -0.6613 C   0  0  0  0  0  0  0  0  0  0  0  0
   -0.1524    0.1956   -0.0349 C   0  0  0  0  0  0  0  0  0  0  0  0
    0.2294   -0.8141    0.7981 C   0  0  0  0  0  0  0  0  0  0  0  0
    1.6118   -1.0335    0.9968 C   0  0  0  0  0  0  0  0  0  0  0  0
    2.5570   -0.2708    0.3844 C   0  0  0  0  0  0  0  0  0  0  0  0
    3.9157   -0.4714    0.5675 O   0  0  0  0  0  0  0  0  0  0  0  0
   -0.6720   -1.6034    1.4329 O   0  0  0  0  0  0  0  0  0  0  0  0
   -1.5421    0.5044   -0.3070 C   0  0  0  0  0  0  0  0  0  0  0  0
   -2.5445   -0.1031    0.1773 N   0  0  0  0  0  0  0  0  0  0  0  0
   -3.8743    0.2025   -0.0913 N   0  0  0  0  0  0  0  0  0  0  0  0
  1  2  2  0
  2  3  1  0
  3  4  2  0
  4  5  1  0
  5  6  2  0
  6  7  1  0
  4  8  1  0
  3  9  1  0
  9 10  2  0
 10 11  1  0
  6  1  1  0
M  END

