COCCSC1=NC2=C(N1)C(=O)NC(=N2)N
     RDKit          3D

 16 17  0  0  0  0  0  0  0  0999 V2000
   -2.6828    0.7560    1.4218 C   0  0  0  0  0  0  0  0  0  0  0  0
   -2.2698   -0.3597    0.6866 O   0  0  0  0  0  0  0  0  0  0  0  0
   -3.3385   -1.0634    0.1692 C   0  0  0  0  0  0  0  0  0  0  0  0
   -2.8178   -2.2582   -0.6226 C   0  0  0  0  0  0  0  0  0  0  0  0
   -1.7831   -1.5698   -1.9345 S   0  0  0  0  0  0  0  0  0  0  0  0
   -0.3216   -0.7871   -1.2674 C   0  0  0  0  0  0  0  0  0  0  0  0
   -0.2307    0.5033   -0.8918 N   0  0  0  0  0  0  0  0  0  0  0  0
    1.0142    0.7432   -0.4346 C   0  0  0  0  0  0  0  0  0  0  0  0
    1.7460   -0.4247   -0.5178 C   0  0  0  0  0  0  0  0  0  0  0  0
    0.8863   -1.3284   -1.0319 N   0  0  0  0  0  0  0  0  0  0  0  0
    3.0651   -0.4477   -0.1072 C   0  0  0  0  0  0  0  0  0  0  0  0
    3.7119   -1.5199   -0.1917 O   0  0  0  0  0  0  0  0  0  0  0  0
    3.6720    0.6484    0.3799 N   0  0  0  0  0  0  0  0  0  0  0  0
    2.9549    1.7754    0.4568 C   0  0  0  0  0  0  0  0  0  0  0  0
    1.6550    1.8215    0.0583 N   0  0  0  0  0  0  0  0  0  0  0  0
    3.5979    2.9442    0.9748 N   0  0  0  0  0  0  0  0  0  0  0  0
  1  2  1  0
  2  3  1  0
  3  4  1  0
  4  5  1  0
  5  6  1  0
  6  7  2  0
  7  8  1  0
  8  9  2  0
  9 10  1  0
  9 11  1  0
 11 12  2  0
 11 13  1  0
 13 14  1  0
 14 15  2  0
 14 16  1  0
 10  6  1  0
 15  8  1  0
M  END

