CC(C1=CC(=NO1)C(F)(F)F)O
     RDKit          3D

 12 12  0  0  0  0  0  0  0  0999 V2000
   -2.5241    0.9143   -0.5708 C   0  0  0  0  0  0  0  0  0  0  0  0
   -1.7828   -0.3581   -0.4272 C   0  0  0  0  0  0  0  0  0  0  0  0
   -0.4108   -0.0582    0.0290 C   0  0  0  0  0  0  0  0  0  0  0  0
    0.8194   -0.5119   -0.4403 C   0  0  0  0  0  0  0  0  0  0  0  0
    1.7775    0.0358    0.3678 C   0  0  0  0  0  0  0  0  0  0  0  0
    1.1851    0.7902    1.2526 N   0  0  0  0  0  0  0  0  0  0  0  0
   -0.1414    0.7457    1.0586 O   0  0  0  0  0  0  0  0  0  0  0  0
    3.2357   -0.1329    0.2518 C   0  0  0  0  0  0  0  0  0  0  0  0
    3.5234   -1.4662   -0.0901 F   0  0  0  0  0  0  0  0  0  0  0  0
    3.8110    0.0886    1.5094 F   0  0  0  0  0  0  0  0  0  0  0  0
    3.8469    0.6865   -0.6552 F   0  0  0  0  0  0  0  0  0  0  0  0
   -2.5179   -1.0862    0.5666 O   0  0  0  0  0  0  0  0  0  0  0  0
  1  2  1  0
  2  3  1  0
  3  4  2  0
  4  5  1  0
  5  6  2  0
  6  7  1  0
  5  8  1  0
  8  9  1  0
  8 10  1  0
  8 11  1  0
  2 12  1  0
  7  3  1  0
M  END

