COCCC1=NC2=C(CCN(CC2)C3CCC3)C(=O)N1
     RDKit          3D

 20 22  0  0  0  0  0  0  0  0999 V2000
    6.5249   -1.2097    1.1461 C   0  0  0  0  0  0  0  0  0  0  0  0
    6.2101    0.0099    0.6205 O   0  0  0  0  0  0  0  0  0  0  0  0
    4.9159    0.3977    0.7381 C   0  0  0  0  0  0  0  0  0  0  0  0
    3.9277   -0.5188    0.0556 C   0  0  0  0  0  0  0  0  0  0  0  0
    2.5217   -0.0243    0.1849 C   0  0  0  0  0  0  0  0  0  0  0  0
    1.5550   -0.7319   -0.4168 N   0  0  0  0  0  0  0  0  0  0  0  0
    0.2592   -0.3841   -0.3690 C   0  0  0  0  0  0  0  0  0  0  0  0
   -0.0477    0.7591    0.3413 C   0  0  0  0  0  0  0  0  0  0  0  0
   -1.3710    1.3861    0.5594 C   0  0  0  0  0  0  0  0  0  0  0  0
   -2.0299    1.4366   -0.8238 C   0  0  0  0  0  0  0  0  0  0  0  0
   -2.5177    0.1412   -1.0986 N   0  0  0  0  0  0  0  0  0  0  0  0
   -1.7054   -0.7243   -1.8514 C   0  0  0  0  0  0  0  0  0  0  0  0
   -0.5540   -1.3411   -1.1178 C   0  0  0  0  0  0  0  0  0  0  0  0
   -3.3601   -0.4513   -0.1219 C   0  0  0  0  0  0  0  0  0  0  0  0
   -4.3903   -1.3677   -0.7858 C   0  0  0  0  0  0  0  0  0  0  0  0
   -5.4216   -0.8101    0.1722 C   0  0  0  0  0  0  0  0  0  0  0  0
   -4.5448    0.4478    0.2486 C   0  0  0  0  0  0  0  0  0  0  0  0
    0.9557    1.4699    0.9498 C   0  0  0  0  0  0  0  0  0  0  0  0
    0.6952    2.5113    1.5948 O   0  0  0  0  0  0  0  0  0  0  0  0
    2.2566    1.0834    0.8785 N   0  0  0  0  0  0  0  0  0  0  0  0
  1  2  1  0
  2  3  1  0
  3  4  1  0
  4  5  1  0
  5  6  2  0
  6  7  1  0
  7  8  2  0
  8  9  1  0
  9 10  1  0
 10 11  1  0
 11 12  1  0
 12 13  1  0
 11 14  1  0
 14 15  1  0
 15 16  1  0
 16 17  1  0
  8 18  1  0
 18 19  2  0
 18 20  1  0
 20  5  1  0
 13  7  1  0
 17 14  1  0
M  END

