
     RDKit          3D

  8  7  0  0  0  0  0  0  0  0999 V2000
   -2.5492   -0.6551    0.7523 C   0  0  0  0  0  0  0  0  0  0  0  0
   -1.2134   -0.6056   -0.0234 C   0  0  0  0  0  0  0  0  0  0  0  0
   -0.7870    0.8360   -0.0316 C   0  0  0  0  0  0  0  0  0  0  0  0
    0.4670    1.1463   -0.7575 C   0  0  0  0  0  0  0  0  0  0  0  0
    1.6315    0.4298   -0.2177 C   0  0  0  0  0  0  0  0  0  0  0  0
    2.6295    1.0809    0.4058 C   0  0  0  0  0  0  0  0  0  0  0  0
    1.7281   -0.9923   -0.4021 C   0  0  0  0  0  0  0  0  0  0  0  0
    1.8427   -2.2051   -0.5737 C   0  0  0  0  0  0  0  0  0  0  0  0
  1  2  1  0
  2  3  1  0
  3  4  1  0
  4  5  1  0
  5  6  2  0
  5  7  1  0
  7  8  3  0
M  END

