CC(C)(C)OC(=O)N1CCC(CC1)C2=CC(=C(C=C2)OC)C(=O)O
     RDKit          3D

 24 25  0  0  0  0  0  0  0  0999 V2000
    6.0203   -0.2247    0.1183 C   0  0  0  0  0  0  0  0  0  0  0  0
    4.9275    0.0660   -0.8883 C   0  0  0  0  0  0  0  0  0  0  0  0
    4.7189   -1.1341   -1.8188 C   0  0  0  0  0  0  0  0  0  0  0  0
    5.4401    1.1932   -1.7800 C   0  0  0  0  0  0  0  0  0  0  0  0
    3.7382    0.4968   -0.3044 O   0  0  0  0  0  0  0  0  0  0  0  0
    2.9863   -0.2281    0.6066 C   0  0  0  0  0  0  0  0  0  0  0  0
    3.4076   -1.3614    0.9325 O   0  0  0  0  0  0  0  0  0  0  0  0
    1.7830    0.2468    1.1761 N   0  0  0  0  0  0  0  0  0  0  0  0
    1.0847   -0.6012    2.1171 C   0  0  0  0  0  0  0  0  0  0  0  0
   -0.3912   -0.3641    2.0270 C   0  0  0  0  0  0  0  0  0  0  0  0
   -0.6744    0.1221    0.5994 C   0  0  0  0  0  0  0  0  0  0  0  0
   -0.2119    1.5565    0.5606 C   0  0  0  0  0  0  0  0  0  0  0  0
    1.2760    1.5590    0.8140 C   0  0  0  0  0  0  0  0  0  0  0  0
   -2.1076   -0.0364    0.3676 C   0  0  0  0  0  0  0  0  0  0  0  0
   -3.0966    0.5837    1.0753 C   0  0  0  0  0  0  0  0  0  0  0  0
   -4.4314    0.3973    0.8133 C   0  0  0  0  0  0  0  0  0  0  0  0
   -4.8331   -0.4579   -0.2161 C   0  0  0  0  0  0  0  0  0  0  0  0
   -3.8466   -1.0926   -0.9412 C   0  0  0  0  0  0  0  0  0  0  0  0
   -2.5144   -0.8865   -0.6559 C   0  0  0  0  0  0  0  0  0  0  0  0
   -6.1858   -0.6397   -0.4732 O   0  0  0  0  0  0  0  0  0  0  0  0
   -6.5497   -1.5148   -1.5251 C   0  0  0  0  0  0  0  0  0  0  0  0
   -5.4665    1.0634    1.5743 C   0  0  0  0  0  0  0  0  0  0  0  0
   -5.1579    1.8427    2.5105 O   0  0  0  0  0  0  0  0  0  0  0  0
   -6.8153    0.8783    1.3135 O   0  0  0  0  0  0  0  0  0  0  0  0
  1  2  1  0
  2  3  1  0
  2  4  1  0
  2  5  1  0
  5  6  1  0
  6  7  2  0
  6  8  1  0
  8  9  1  0
  9 10  1  0
 10 11  1  0
 11 12  1  0
 12 13  1  0
 11 14  1  0
 14 15  2  0
 15 16  1  0
 16 17  2  0
 17 18  1  0
 18 19  2  0
 17 20  1  0
 20 21  1  0
 16 22  1  0
 22 23  2  0
 22 24  1  0
 13  8  1  0
 19 14  1  0
M  END

