
     RDKit          3D

 13 12  0  0  0  0  0  0  0  0999 V2000
   -4.6642    0.1654    0.6449 C   0  0  0  0  0  0  0  0  0  0  0  0
   -4.5579    1.0682   -0.5234 C   0  0  0  0  0  0  0  0  0  0  0  0
   -3.3775    1.2460   -1.0806 C   0  0  0  0  0  0  0  0  0  0  0  0
   -2.2044    0.5862   -0.5797 C   0  0  0  0  0  0  0  0  0  0  0  0
   -1.0203    0.7663   -1.1409 C   0  0  0  0  0  0  0  0  0  0  0  0
    0.1692    0.1218   -0.6638 C   0  0  0  0  0  0  0  0  0  0  0  0
    1.1805   -0.4074   -0.2639 C   0  0  0  0  0  0  0  0  0  0  0  0
    2.3880   -1.0182    0.2027 C   0  0  0  0  0  0  0  0  0  0  0  0
    2.3360   -2.2298    0.6267 N   0  0  0  0  0  0  0  0  0  0  0  0
    1.1359   -2.9420    0.6361 N   0  0  0  0  0  0  0  0  0  0  0  0
    3.6523   -0.3420    0.2193 C   0  0  0  0  0  0  0  0  0  0  0  0
    4.7178    0.2461    0.2472 C   0  0  0  0  0  0  0  0  0  0  0  0
    5.9927    0.9790    0.2786 C   0  0  0  0  0  0  0  0  0  0  0  0
  1  2  1  0
  2  3  2  3
  3  4  1  0
  4  5  2  3
  5  6  1  0
  6  7  3  0
  7  8  1  0
  8  9  2  3
  9 10  1  0
  8 11  1  0
 11 12  3  0
 12 13  1  0
M  END

