CC(C)(C)[Si](C)(C)OC1=CC(=CC(=C1)CCO)O[Si](C)(C)C(C)(C)C
     RDKit          3D

 25 25  0  0  0  0  0  0  0  0999 V2000
    6.1977   -0.4669    0.5928 C   0  0  0  0  0  0  0  0  0  0  0  0
    5.0359   -1.3474    0.2384 C   0  0  0  0  0  0  0  0  0  0  0  0
    5.1693   -2.6200    1.0529 C   0  0  0  0  0  0  0  0  0  0  0  0
    5.0688   -1.7257   -1.2253 C   0  0  0  0  0  0  0  0  0  0  0  0
    3.4490   -0.4738    0.5889 Si  0  0  0  0  0  4  0  0  0  0  0  0
    3.6561    0.9352    1.7914 C   0  0  0  0  0  0  0  0  0  0  0  0
    2.2403   -1.7320    1.2797 C   0  0  0  0  0  0  0  0  0  0  0  0
    2.7269    0.1925   -0.8553 O   0  0  0  0  0  0  0  0  0  0  0  0
    1.3915    0.5742   -0.7404 C   0  0  0  0  0  0  0  0  0  0  0  0
    0.3760   -0.3108   -1.0100 C   0  0  0  0  0  0  0  0  0  0  0  0
   -0.9849    0.0246   -0.9082 C   0  0  0  0  0  0  0  0  0  0  0  0
   -1.3145    1.3000   -0.5196 C   0  0  0  0  0  0  0  0  0  0  0  0
   -0.2898    2.1893   -0.2490 C   0  0  0  0  0  0  0  0  0  0  0  0
    1.0438    1.8534   -0.3511 C   0  0  0  0  0  0  0  0  0  0  0  0
   -0.6917    3.5607    0.1706 C   0  0  0  0  0  0  0  0  0  0  0  0
   -0.8255    4.4271   -1.0684 C   0  0  0  0  0  0  0  0  0  0  0  0
    0.4085    4.4455   -1.6988 O   0  0  0  0  0  0  0  0  0  0  0  0
   -1.8953   -0.9322   -1.2006 O   0  0  0  0  0  0  0  0  0  0  0  0
   -3.5861   -0.7439   -1.1568 Si  0  0  0  0  0  4  0  0  0  0  0  0
   -4.3271   -2.2776   -1.9755 C   0  0  0  0  0  0  0  0  0  0  0  0
   -4.1402    0.7835   -2.0866 C   0  0  0  0  0  0  0  0  0  0  0  0
   -4.1688   -0.7366    0.6014 C   0  0  0  0  0  0  0  0  0  0  0  0
   -3.0962   -0.3594    1.5851 C   0  0  0  0  0  0  0  0  0  0  0  0
   -5.3736    0.1689    0.7764 C   0  0  0  0  0  0  0  0  0  0  0  0
   -4.5985   -2.1581    0.9702 C   0  0  0  0  0  0  0  0  0  0  0  0
  1  2  1  0
  2  3  1  0
  2  4  1  0
  2  5  1  0
  5  6  1  0
  5  7  1  0
  5  8  1  0
  8  9  1  0
  9 10  2  0
 10 11  1  0
 11 12  2  0
 12 13  1  0
 13 14  2  0
 13 15  1  0
 15 16  1  0
 16 17  1  0
 11 18  1  0
 18 19  1  0
 19 20  1  0
 19 21  1  0
 19 22  1  0
 22 23  1  0
 22 24  1  0
 22 25  1  0
 14  9  1  0
M  END

