FC(=C)COC(=O)C=CC=O
     RDKit          3D

 11 10  0  0  0  0  0  0  0  0999 V2000
   -3.4361    1.1880   -0.7967 F   0  0  0  0  0  0  0  0  0  0  0  0
   -2.9656   -0.0156   -0.3966 C   0  0  0  0  0  0  0  0  0  0  0  0
   -3.7633   -0.8586    0.2226 C   0  0  0  0  0  0  0  0  0  0  0  0
   -1.5711   -0.3751   -0.6542 C   0  0  0  0  0  0  0  0  0  0  0  0
   -0.6400    0.4824   -0.0677 O   0  0  0  0  0  0  0  0  0  0  0  0
    0.7409    0.1986   -0.2730 C   0  0  0  0  0  0  0  0  0  0  0  0
    0.9238   -0.8203   -0.9783 O   0  0  0  0  0  0  0  0  0  0  0  0
    1.7455    1.0488    0.3081 C   0  0  0  0  0  0  0  0  0  0  0  0
    3.0146    0.9208    0.2113 C   0  0  0  0  0  0  0  0  0  0  0  0
    3.7820   -0.0720   -0.4799 C   0  0  0  0  0  0  0  0  0  0  0  0
    3.3389   -1.0310   -1.1398 O   0  0  0  0  0  0  0  0  0  0  0  0
  1  2  1  0
  2  3  2  0
  2  4  1  0
  4  5  1  0
  5  6  1  0
  6  7  2  0
  6  8  1  0
  8  9  2  3
  9 10  1  0
 10 11  2  0
M  END

