
     RDKit          3D

 23 25  0  0  0  0  0  0  0  0999 V2000
   -3.9669    3.0993    0.5507 C   0  0  0  0  0  0  0  0  0  0  0  0
   -3.3683    1.8391    0.7334 O   0  0  0  0  0  0  0  0  0  0  0  0
   -3.8383    0.7017    0.0505 C   0  0  0  0  0  0  0  0  0  0  0  0
   -4.9068    0.7904   -0.8234 C   0  0  0  0  0  0  0  0  0  0  0  0
   -5.3941   -0.3085   -1.5110 C   0  0  0  0  0  0  0  0  0  0  0  0
   -4.7730   -1.5232   -1.2980 C   0  0  0  0  0  0  0  0  0  0  0  0
   -3.7103   -1.6104   -0.4285 C   0  0  0  0  0  0  0  0  0  0  0  0
   -3.2221   -0.5035    0.2619 C   0  0  0  0  0  0  0  0  0  0  0  0
   -2.1219   -0.6184    1.1558 N   0  0  0  0  0  0  0  0  0  0  0  0
   -0.7716   -0.4508    0.7314 C   0  0  0  0  0  0  0  0  0  0  0  0
   -0.4506   -0.1667   -0.5741 C   0  0  0  0  0  0  0  0  0  0  0  0
    0.8568   -0.0123   -0.9463 C   0  0  0  0  0  0  0  0  0  0  0  0
    1.9215   -0.1369   -0.0142 C   0  0  0  0  0  0  0  0  0  0  0  0
    1.5640   -0.4238    1.2947 C   0  0  0  0  0  0  0  0  0  0  0  0
    0.2410   -0.5704    1.6234 C   0  0  0  0  0  0  0  0  0  0  0  0
    3.1248    0.0334   -0.4958 O   0  0  0  0  0  0  0  0  0  0  0  0
    4.4178    0.0749   -0.3158 C   0  0  0  0  0  0  0  0  0  0  0  0
    5.1082   -0.1247    0.8723 C   0  0  0  0  0  0  0  0  0  0  0  0
    6.4810   -0.0423    0.8745 C   0  0  0  0  0  0  0  0  0  0  0  0
    7.2390    0.2297   -0.2397 C   0  0  0  0  0  0  0  0  0  0  0  0
    6.5633    0.4295   -1.4241 C   0  0  0  0  0  0  0  0  0  0  0  0
    5.1965    0.3561   -1.4687 C   0  0  0  0  0  0  0  0  0  0  0  0
   -3.0617   -2.8768   -0.2055 N   0  0  0  0  0  0  0  0  0  0  0  0
  1  2  1  0
  2  3  1  0
  3  4  2  0
  4  5  1  0
  5  6  2  0
  6  7  1  0
  7  8  2  0
  8  9  1  0
  9 10  1  0
 10 11  2  0
 11 12  1  0
 12 13  2  0
 13 14  1  0
 14 15  2  0
 13 16  1  0
 16 17  1  0
 17 18  2  0
 18 19  1  0
 19 20  2  0
 20 21  1  0
 21 22  2  0
  7 23  1  0
  8  3  1  0
 15 10  1  0
 22 17  1  0
M  END

