C1=CN=CC(=C1OCC(=O)O)F
     RDKit          3D

 12 12  0  0  0  0  0  0  0  0999 V2000
   -0.9190    0.4049    0.4304 C   0  0  0  0  0  0  0  0  0  0  0  0
   -2.2480    0.4946    0.7915 C   0  0  0  0  0  0  0  0  0  0  0  0
   -3.1712   -0.3053    0.2514 N   0  0  0  0  0  0  0  0  0  0  0  0
   -2.8020   -1.2180   -0.6635 C   0  0  0  0  0  0  0  0  0  0  0  0
   -1.4793   -1.3237   -1.0380 C   0  0  0  0  0  0  0  0  0  0  0  0
   -0.4797   -0.5088   -0.5000 C   0  0  0  0  0  0  0  0  0  0  0  0
    0.7942   -0.6827   -0.9277 O   0  0  0  0  0  0  0  0  0  0  0  0
    1.9616   -0.0381   -0.5743 C   0  0  0  0  0  0  0  0  0  0  0  0
    2.3041   -0.1835    0.8617 C   0  0  0  0  0  0  0  0  0  0  0  0
    1.5514   -0.8735    1.5939 O   0  0  0  0  0  0  0  0  0  0  0  0
    3.4164    0.4060    1.4362 O   0  0  0  0  0  0  0  0  0  0  0  0
   -1.1643   -2.2601   -1.9634 F   0  0  0  0  0  0  0  0  0  0  0  0
  1  2  2  0
  2  3  1  0
  3  4  2  0
  4  5  1  0
  5  6  2  0
  6  7  1  0
  7  8  1  0
  8  9  1  0
  9 10  2  0
  9 11  1  0
  5 12  1  0
  6  1  1  0
M  END

