
     RDKit          3D

 10 10  0  0  0  0  0  0  0  0999 V2000
    2.6022    0.0910    0.1120 C   0  0  0  0  0  0  0  0  0  0  0  0
    1.1362   -0.1037    0.0231 C   0  0  0  0  0  0  0  0  0  0  0  0
    0.5496   -1.3261   -0.2233 C   0  0  0  0  0  0  0  0  0  0  0  0
   -0.7867   -1.4563   -0.2956 N   0  0  0  0  0  0  0  0  0  0  0  0
   -1.6467   -0.4272   -0.1371 C   0  0  0  0  0  0  0  0  0  0  0  0
   -1.0846    0.8157    0.1122 C   0  0  0  0  0  0  0  0  0  0  0  0
    0.2826    0.9658    0.1893 C   0  0  0  0  0  0  0  0  0  0  0  0
    1.1355    2.8624    0.5695 I   0  0  0  0  0  0  0  0  0  0  0  0
   -2.1278    2.2120    0.3316 Cl  0  0  0  0  0  0  0  0  0  0  0  0
   -3.0502   -0.5948   -0.2188 N   0  0  0  0  0  0  0  0  0  0  0  0
  1  2  1  0
  2  3  2  0
  3  4  1  0
  4  5  2  0
  5  6  1  0
  6  7  2  0
  7  8  1  0
  6  9  1  0
  5 10  1  0
  7  2  1  0
M  END

