CC(=C(C1CCCCC1)C2CCCCC2)C3CCCCC3
     RDKit          3D

 21 23  0  0  0  0  0  0  0  0999 V2000
    1.5429    1.8336    0.8137 C   0  0  0  0  0  0  0  0  0  0  0  0
    1.0695    0.5359    0.1688 C   0  0  0  0  0  0  0  0  0  0  0  0
   -0.2422    0.3372    0.0329 C   0  0  0  0  0  0  0  0  0  0  0  0
   -0.6991   -0.8902   -0.5725 C   0  0  0  0  0  0  0  0  0  0  0  0
   -1.5040   -1.6923    0.4820 C   0  0  0  0  0  0  0  0  0  0  0  0
   -1.4496   -3.1379   -0.0639 C   0  0  0  0  0  0  0  0  0  0  0  0
   -2.3464   -3.1189   -1.2836 C   0  0  0  0  0  0  0  0  0  0  0  0
   -1.6777   -2.2621   -2.3264 C   0  0  0  0  0  0  0  0  0  0  0  0
   -1.5031   -0.8220   -1.8427 C   0  0  0  0  0  0  0  0  0  0  0  0
   -1.1320    1.4342    0.5201 C   0  0  0  0  0  0  0  0  0  0  0  0
   -1.8172    1.1533    1.8303 C   0  0  0  0  0  0  0  0  0  0  0  0
   -2.6327    2.4302    2.1361 C   0  0  0  0  0  0  0  0  0  0  0  0
   -3.7995    2.4810    1.1649 C   0  0  0  0  0  0  0  0  0  0  0  0
   -3.4832    1.7126   -0.1024 C   0  0  0  0  0  0  0  0  0  0  0  0
   -2.0360    2.0292   -0.5084 C   0  0  0  0  0  0  0  0  0  0  0  0
    2.1740   -0.3644   -0.2691 C   0  0  0  0  0  0  0  0  0  0  0  0
    2.8233   -0.9658    0.9296 C   0  0  0  0  0  0  0  0  0  0  0  0
    4.2485   -0.6666    1.1681 C   0  0  0  0  0  0  0  0  0  0  0  0
    4.9534   -0.8516   -0.1847 C   0  0  0  0  0  0  0  0  0  0  0  0
    4.5194    0.3378   -0.9762 C   0  0  0  0  0  0  0  0  0  0  0  0
    3.0696    0.3651   -1.2302 C   0  0  0  0  0  0  0  0  0  0  0  0
  1  2  1  0
  2  3  2  3
  3  4  1  0
  4  5  1  0
  5  6  1  0
  6  7  1  0
  7  8  1  0
  8  9  1  0
  3 10  1  0
 10 11  1  0
 11 12  1  0
 12 13  1  0
 13 14  1  0
 14 15  1  0
  2 16  1  0
 16 17  1  0
 17 18  1  0
 18 19  1  0
 19 20  1  0
 20 21  1  0
  9  4  1  0
 15 10  1  0
 21 16  1  0
M  END

