
     RDKit          3D

 12 13  0  0  0  0  0  0  0  0999 V2000
    2.0418    0.6156    0.0240 C   0  0  0  0  0  0  0  0  0  0  0  0
    1.1406   -0.3613   -0.3430 C   0  0  0  0  0  0  0  0  0  0  0  0
    1.8247   -1.3288   -0.9286 N   0  0  0  0  0  0  0  0  0  0  0  0
    3.0906   -0.9972   -0.9393 N   0  0  0  0  0  0  0  0  0  0  0  0
    3.2937    0.1993   -0.3629 C   0  0  0  0  0  0  0  0  0  0  0  0
   -0.3137   -0.3163   -0.1153 C   0  0  0  0  0  0  0  0  0  0  0  0
   -1.2018   -1.2454   -0.4599 N   0  0  0  0  0  0  0  0  0  0  0  0
   -2.4449   -0.8388   -0.0791 C   0  0  0  0  0  0  0  0  0  0  0  0
   -2.3131    0.3942    0.5258 C   0  0  0  0  0  0  0  0  0  0  0  0
   -0.9972    0.6759    0.4827 N   0  0  0  0  0  0  0  0  0  0  0  0
   -3.3845    1.1956    1.0820 C   0  0  0  0  0  0  0  0  0  0  0  0
   -4.2475    1.8329    1.5178 N   0  0  0  0  0  0  0  0  0  0  0  0
  1  2  2  0
  2  3  1  0
  3  4  1  0
  4  5  2  0
  2  6  1  0
  6  7  2  0
  7  8  1  0
  8  9  2  0
  9 10  1  0
  9 11  1  0
 11 12  3  0
  5  1  1  0
 10  6  1  0
M  END

