
     RDKit          3D

 17 18  0  0  0  0  0  0  0  0999 V2000
   -3.0449    1.7385    0.7401 C   0  0  0  0  0  0  0  0  0  0  0  0
   -4.0019    0.8601    0.3289 C   0  0  0  0  0  0  0  0  0  0  0  0
   -3.6013   -0.3501   -0.1832 C   0  0  0  0  0  0  0  0  0  0  0  0
   -2.2401   -0.6703   -0.2788 C   0  0  0  0  0  0  0  0  0  0  0  0
   -1.2703    0.1953    0.1274 C   0  0  0  0  0  0  0  0  0  0  0  0
   -1.7296    1.4119    0.6403 C   0  0  0  0  0  0  0  0  0  0  0  0
    0.1508   -0.0587    0.0624 C   0  0  0  0  0  0  0  0  0  0  0  0
    0.9694    0.9381    0.5204 N   0  0  0  0  0  0  0  0  0  0  0  0
    2.2937    0.8764    0.5357 C   0  0  0  0  0  0  0  0  0  0  0  0
    2.8462   -0.2990    0.0439 C   0  0  0  0  0  0  0  0  0  0  0  0
    2.0436   -1.3096   -0.4195 C   0  0  0  0  0  0  0  0  0  0  0  0
    2.5327   -2.3960   -0.8747 O   0  0  0  0  0  0  0  0  0  0  0  0
    0.6910   -1.1820   -0.4072 N   0  0  0  0  0  0  0  0  0  0  0  0
    4.2984   -0.4416    0.0283 C   0  0  0  0  0  0  0  0  0  0  0  0
    4.8607   -1.4685   -0.3989 O   0  0  0  0  0  0  0  0  0  0  0  0
    5.1103    0.5814    0.4974 O   0  0  0  0  0  0  0  0  0  0  0  0
   -1.9546   -1.9041   -0.8046 O   0  0  0  0  0  0  0  0  0  0  0  0
  1  2  2  0
  2  3  1  0
  3  4  2  0
  4  5  1  0
  5  6  2  0
  5  7  1  0
  7  8  2  0
  8  9  1  0
  9 10  2  0
 10 11  1  0
 11 12  2  0
 11 13  1  0
 10 14  1  0
 14 15  2  0
 14 16  1  0
  4 17  1  0
  6  1  1  0
 13  7  1  0
M  END

