C1CN2CC(C(=O)N2C1C(=O)O)N
     RDKit          3D

 13 14  0  0  0  0  0  0  0  0999 V2000
   -1.9291    0.2094    1.0437 C   0  0  0  0  0  0  0  0  0  0  0  0
   -0.6091    0.4311    1.7984 C   0  0  0  0  0  0  0  0  0  0  0  0
    0.2868   -0.3673    1.0152 N   0  0  0  0  0  0  0  0  0  0  0  0
    1.6198    0.1452    0.9192 C   0  0  0  0  0  0  0  0  0  0  0  0
    2.1736   -0.7080   -0.2348 C   0  0  0  0  0  0  0  0  0  0  0  0
    0.9351   -0.7929   -1.0870 C   0  0  0  0  0  0  0  0  0  0  0  0
    0.8316   -1.2626   -2.2555 O   0  0  0  0  0  0  0  0  0  0  0  0
   -0.1446   -0.2340   -0.3288 N   0  0  0  0  0  0  0  0  0  0  0  0
   -1.4417    0.3847   -0.3810 C   0  0  0  0  0  0  0  0  0  0  0  0
   -2.2801   -0.2849   -1.3692 C   0  0  0  0  0  0  0  0  0  0  0  0
   -1.8459   -1.2499   -2.0287 O   0  0  0  0  0  0  0  0  0  0  0  0
   -3.5817    0.1373   -1.5983 O   0  0  0  0  0  0  0  0  0  0  0  0
    3.2212    0.0277   -0.9034 N   0  0  0  0  0  0  0  0  0  0  0  0
  1  2  1  0
  2  3  1  0
  3  4  1  0
  4  5  1  0
  5  6  1  0
  6  7  2  0
  6  8  1  0
  8  9  1  0
  9 10  1  0
 10 11  2  0
 10 12  1  0
  5 13  1  0
  9  1  1  0
  8  3  1  0
M  END

