
     RDKit          3D

 15 14  0  0  0  0  0  0  0  0999 V2000
   -3.1550    2.2603   -0.2692 C   0  0  0  0  0  0  0  0  0  0  0  0
   -3.3885    0.8804    0.2339 C   0  0  0  0  0  0  0  0  0  0  0  0
   -4.5708    0.3800   -0.3493 O   0  0  0  0  0  0  0  0  0  0  0  0
   -2.3005   -0.0315   -0.1877 C   0  0  0  0  0  0  0  0  0  0  0  0
   -2.5108   -1.0991   -0.8891 N   0  0  0  0  0  0  0  0  0  0  0  0
   -3.7240   -1.5280   -1.3340 O   0  0  0  0  0  0  0  0  0  0  0  0
   -0.8645    0.2445    0.1645 C   0  0  0  0  0  0  0  0  0  0  0  0
   -0.0125   -0.9185   -0.2206 C   0  0  0  0  0  0  0  0  0  0  0  0
    1.4715   -0.7285    0.0426 C   0  0  0  0  0  0  0  0  0  0  0  0
    1.7900   -0.4353    1.4524 C   0  0  0  0  0  0  0  0  0  0  0  0
    2.0673   -2.1429   -0.2176 C   0  0  0  0  0  0  0  0  0  0  0  0
    1.9991    0.2099   -0.9775 C   0  0  0  0  0  0  0  0  0  0  0  0
    3.3534    0.5568   -0.9420 N   0  0  0  0  0  0  0  0  0  0  0  0
    4.6365    0.8857   -0.9080 C   0  0  0  0  0  0  0  0  0  0  0  0
    5.2625    1.4721    0.0568 O   0  0  0  0  0  0  0  0  0  0  0  0
  1  2  1  0
  2  3  1  0
  2  4  1  0
  4  5  2  3
  5  6  1  0
  4  7  1  0
  7  8  1  0
  8  9  1  0
  9 10  1  0
  9 11  1  0
  9 12  1  0
 12 13  1  0
 13 14  1  0
 14 15  2  0
M  END

