
     RDKit          3D

 10 10  0  0  0  0  0  0  0  0999 V2000
    2.8682   -0.5020    0.5305 C   0  0  0  0  0  0  0  0  0  0  0  0
    1.4518   -0.2257    0.2379 N   0  0  0  0  0  0  0  0  0  0  0  0
    1.0352    0.2806   -0.9080 C   0  0  0  0  0  0  0  0  0  0  0  0
   -0.3650    0.4153   -0.8519 C   0  0  0  0  0  0  0  0  0  0  0  0
   -0.7399   -0.0328    0.3697 C   0  0  0  0  0  0  0  0  0  0  0  0
    0.4293   -0.4243    1.0191 N   0  0  0  0  0  0  0  0  0  0  0  0
   -2.0275   -0.1571    1.0233 C   0  0  0  0  0  0  0  0  0  0  0  0
   -3.1329    0.1462    0.5323 N   0  0  0  0  0  0  0  0  0  0  0  0
   -3.3646    0.6424   -0.6824 O   0  0  0  0  0  0  0  0  0  0  0  0
   -1.3598    1.0458   -2.1323 Cl  0  0  0  0  0  0  0  0  0  0  0  0
  1  2  1  0
  2  3  1  0
  3  4  2  0
  4  5  1  0
  5  6  2  0
  5  7  1  0
  7  8  2  0
  8  9  1  0
  4 10  1  0
  6  2  1  0
M  END

