CNCC1=CC(C)=NOC(=N)N1
     RDKit          3D

 12 12  0  0  0  0  0  0  0  0999 V2000
   -2.6120   -0.3432    1.0730 C   0  0  0  0  0  0  0  0  0  0  0  0
   -2.3975   -0.4244   -0.3340 N   0  0  0  0  0  0  0  0  0  0  0  0
   -1.2953   -1.1685   -0.7919 C   0  0  0  0  0  0  0  0  0  0  0  0
    0.0041   -0.5310   -0.5242 C   0  0  0  0  0  0  0  0  0  0  0  0
    0.0280    0.6610    0.0422 C   0  0  0  0  0  0  0  0  0  0  0  0
    1.1847    1.4824    0.4040 C   0  0  0  0  0  0  0  0  0  0  0  0
    0.9587    2.6456    1.3102 C   0  0  0  0  0  0  0  0  0  0  0  0
    2.4084    1.3289    0.0320 N   0  0  0  0  0  0  0  0  0  0  0  0
    2.9727    0.3807   -0.7875 O   0  0  0  0  0  0  0  0  0  0  0  0
    2.5036   -0.9178   -1.0790 C   0  0  0  0  0  0  0  0  0  0  0  0
    3.3875   -1.7547   -1.4967 N   0  0  0  0  0  0  0  0  0  0  0  0
    1.1516   -1.3243   -0.9365 N   0  0  0  0  0  0  0  0  0  0  0  0
  1  2  1  0
  2  3  1  0
  3  4  1  0
  4  5  2  0
  5  6  1  0
  6  7  1  0
  6  8  2  0
  8  9  1  0
  9 10  1  0
 10 11  2  0
 10 12  1  0
 12  4  1  0
M  END

