
     RDKit          3D

 13 13  0  0  0  0  0  0  0  0999 V2000
    3.4235    1.2201   -0.3928 C   0  0  0  0  0  0  0  0  0  0  0  0
    2.1221    0.6798   -0.3042 O   0  0  0  0  0  0  0  0  0  0  0  0
    1.9246   -0.6923   -0.2311 C   0  0  0  0  0  0  0  0  0  0  0  0
    2.9781   -1.4064   -0.2495 O   0  0  0  0  0  0  0  0  0  0  0  0
    0.5765   -1.3039   -0.1370 C   0  0  0  0  0  0  0  0  0  0  0  0
   -0.1423   -0.8121    1.1216 C   0  0  0  0  0  0  0  0  0  0  0  0
   -0.7180    0.5614    0.8899 C   0  0  0  0  0  0  0  0  0  0  0  0
   -1.6938    0.4512   -0.2759 C   0  0  0  0  0  0  0  0  0  0  0  0
   -1.6308   -0.8058   -0.8791 O   0  0  0  0  0  0  0  0  0  0  0  0
   -0.2978   -0.9885   -1.3142 C   0  0  0  0  0  0  0  0  0  0  0  0
   -3.0505    0.6835    0.2765 C   0  0  0  0  0  0  0  0  0  0  0  0
   -3.3073    1.7618    0.8606 O   0  0  0  0  0  0  0  0  0  0  0  0
   -4.0407   -0.2666    0.1607 O   0  0  0  0  0  0  0  0  0  0  0  0
  1  2  1  0
  2  3  1  0
  3  4  2  0
  3  5  1  0
  5  6  1  0
  6  7  1  0
  7  8  1  0
  8  9  1  0
  9 10  1  0
  8 11  1  0
 11 12  2  0
 11 13  1  0
 10  5  1  0
M  END

