CCNC(C)(C)CCCC(C)NC
     RDKit          3D

 13 12  0  0  0  0  0  0  0  0999 V2000
   -3.9216    1.1015    1.7545 C   0  0  0  0  0  0  0  0  0  0  0  0
   -3.5627    0.7057    0.3389 C   0  0  0  0  0  0  0  0  0  0  0  0
   -2.2567    0.0827    0.3035 N   0  0  0  0  0  0  0  0  0  0  0  0
   -1.8247   -0.3103   -1.0011 C   0  0  0  0  0  0  0  0  0  0  0  0
   -2.7715   -1.3674   -1.5431 C   0  0  0  0  0  0  0  0  0  0  0  0
   -1.8110    0.8833   -1.9387 C   0  0  0  0  0  0  0  0  0  0  0  0
   -0.4666   -0.9351   -0.8886 C   0  0  0  0  0  0  0  0  0  0  0  0
    0.6051   -0.0674   -0.3263 C   0  0  0  0  0  0  0  0  0  0  0  0
    1.8834   -0.9076   -0.3243 C   0  0  0  0  0  0  0  0  0  0  0  0
    3.0568   -0.1624    0.2210 C   0  0  0  0  0  0  0  0  0  0  0  0
    4.2390   -1.1416    0.1482 C   0  0  0  0  0  0  0  0  0  0  0  0
    2.9275    0.1951    1.6048 N   0  0  0  0  0  0  0  0  0  0  0  0
    3.9668    1.1397    1.9684 C   0  0  0  0  0  0  0  0  0  0  0  0
  1  2  1  0
  2  3  1  0
  3  4  1  0
  4  5  1  0
  4  6  1  0
  4  7  1  0
  7  8  1  0
  8  9  1  0
  9 10  1  0
 10 11  1  0
 10 12  1  0
 12 13  1  0
M  END

