
     RDKit          3D

 13 12  0  0  0  0  0  0  0  0999 V2000
   -1.3471    0.5481   -1.8429 C   0  0  0  0  0  0  0  0  0  0  0  0
   -2.4351   -0.4589   -1.6536 C   0  0  0  0  0  0  0  0  0  0  0  0
   -1.9090   -1.6288   -1.1788 O   0  0  0  0  0  0  0  0  0  0  0  0
   -1.2607   -1.5505    0.0203 C   0  0  0  0  0  0  0  0  0  0  0  0
   -1.9162   -2.3832    1.1077 C   0  0  0  0  0  0  0  0  0  0  0  0
    0.1859   -1.9860   -0.0598 C   0  0  0  0  0  0  0  0  0  0  0  0
    0.8049   -1.8954    1.1588 O   0  0  0  0  0  0  0  0  0  0  0  0
    0.8361   -0.6422    1.7092 C   0  0  0  0  0  0  0  0  0  0  0  0
    1.5635    0.3493    0.8314 C   0  0  0  0  0  0  0  0  0  0  0  0
    1.5470    1.6351    1.4866 N   0  0  0  0  0  0  0  0  0  0  0  0
    2.2074    2.6141    0.7289 N   0  0  0  0  0  0  0  0  0  0  0  0
    2.6136    2.2602   -0.5890 C   0  0  0  0  0  0  0  0  0  0  0  0
    2.1582    2.8633   -1.6372 N   0  0  0  0  0  0  0  0  0  0  0  0
  1  2  1  0
  2  3  1  0
  3  4  1  0
  4  5  1  0
  4  6  1  0
  6  7  1  0
  7  8  1  0
  8  9  1  0
  9 10  1  0
 10 11  1  0
 11 12  1  0
 12 13  2  0
M  END

