CC(O)C(C)(CO)C(C)([N])C#C
     RDKit          3D

 12 11  0  0  0  0  0  0  0  0999 V2000
   -0.9300    2.2678   -0.3812 C   0  0  0  0  0  0  0  0  0  0  0  0
   -0.9180    0.8853   -0.9209 C   0  0  0  0  0  0  0  0  0  0  0  0
   -2.2393    0.4681   -1.1383 O   0  0  0  0  0  0  0  0  0  0  0  0
   -0.2902   -0.1341   -0.0053 C   0  0  0  0  0  0  0  0  0  0  0  0
   -0.3699   -1.4680   -0.7201 C   0  0  0  0  0  0  0  0  0  0  0  0
   -1.0687   -0.2792    1.2834 C   0  0  0  0  0  0  0  0  0  0  0  0
   -0.4492   -1.2279    2.0854 O   0  0  0  0  0  0  0  0  0  0  0  0
    1.1647    0.1432    0.2636 C   0  0  0  0  0  0  0  0  0  0  0  0
    1.9836    0.1424   -1.0117 C   0  0  0  0  0  0  0  0  0  0  0  0
    1.3889    1.4093    0.9252 N   0  0  0  0  0  1  0  0  0  0  0  0
    1.7335   -0.9049    1.1112 C   0  0  0  0  0  0  0  0  0  0  0  0
    2.2309   -1.7804    1.8118 C   0  0  0  0  0  0  0  0  0  0  0  0
  1  2  1  0
  2  3  1  0
  2  4  1  0
  4  5  1  0
  4  6  1  0
  6  7  1  0
  4  8  1  0
  8  9  1  0
  8 10  1  0
  8 11  1  0
 11 12  3  0
M  RAD  1  10   3
M  END

