
     RDKit          3D

 17 19  0  0  0  0  0  0  0  0999 V2000
   -3.3671    1.7501    0.0219 C   0  0  0  0  0  0  0  0  0  0  0  0
   -3.9843    0.6698   -0.5711 C   0  0  0  0  0  0  0  0  0  0  0  0
   -3.3137   -0.4974   -0.8121 C   0  0  0  0  0  0  0  0  0  0  0  0
   -1.9766   -0.6002   -0.4513 C   0  0  0  0  0  0  0  0  0  0  0  0
   -1.3517    0.4690    0.1398 C   0  0  0  0  0  0  0  0  0  0  0  0
   -2.0463    1.6545    0.3805 C   0  0  0  0  0  0  0  0  0  0  0  0
   -0.0085    0.1241    0.4108 C   0  0  0  0  0  0  0  0  0  0  0  0
    0.1186   -1.1504   -0.0331 C   0  0  0  0  0  0  0  0  0  0  0  0
   -1.0658   -1.5705   -0.5460 N   0  0  0  0  0  0  0  0  0  0  0  0
    0.9113    1.0422    1.0329 C   0  0  0  0  0  0  0  0  0  0  0  0
    2.0952    0.8002    1.2953 N   0  0  0  0  0  0  0  0  0  0  0  0
    2.7628   -0.3569    1.0573 N   0  0  0  0  0  0  0  0  0  0  0  0
    3.4871   -0.5925   -0.0497 C   0  0  0  0  0  0  0  0  0  0  0  0
    4.0118   -1.8169    0.1191 N   0  0  0  0  0  0  0  0  0  0  0  0
    3.6148   -2.2894    1.2801 N   0  0  0  0  0  0  0  0  0  0  0  0
    2.8508   -1.3965    1.8541 N   0  0  0  0  0  0  0  0  0  0  0  0
    3.6824    0.2509   -1.1836 N   0  0  0  0  0  0  0  0  0  0  0  0
  1  2  2  0
  2  3  1  0
  3  4  2  0
  4  5  1  0
  5  6  2  0
  5  7  1  0
  7  8  2  0
  8  9  1  0
  7 10  1  0
 10 11  2  0
 11 12  1  0
 12 13  1  0
 13 14  2  0
 14 15  1  0
 15 16  2  0
 13 17  1  0
  6  1  1  0
  9  4  1  0
 16 12  1  0
M  END

