CC(O)C(C#C)N(C)CCCN[N]CCCN
     RDKit          3D

 17 16  0  0  0  0  0  0  0  0999 V2000
   -5.9071    0.9447    0.4873 C   0  0  0  0  0  0  0  0  0  0  0  0
   -4.9643   -0.2320    0.2767 C   0  0  0  0  0  0  0  0  0  0  0  0
   -5.3335   -1.3236    1.0296 O   0  0  0  0  0  0  0  0  0  0  0  0
   -3.5641    0.2494    0.5508 C   0  0  0  0  0  0  0  0  0  0  0  0
   -3.3250    1.4351   -0.2689 C   0  0  0  0  0  0  0  0  0  0  0  0
   -3.1085    2.4081   -0.9392 C   0  0  0  0  0  0  0  0  0  0  0  0
   -2.5456   -0.7329    0.2889 N   0  0  0  0  0  0  0  0  0  0  0  0
   -2.7513   -1.8410    1.1811 C   0  0  0  0  0  0  0  0  0  0  0  0
   -1.2509   -0.1358    0.4088 C   0  0  0  0  0  0  0  0  0  0  0  0
   -0.1014   -1.0645    0.1137 C   0  0  0  0  0  0  0  0  0  0  0  0
    1.1785   -0.2328    0.2880 C   0  0  0  0  0  0  0  0  0  0  0  0
    2.2733   -1.0914    0.0136 N   0  0  0  0  0  0  0  0  0  0  0  0
    3.5232   -0.5254    0.1135 N   0  0  0  0  0  2  0  0  0  0  0  0
    3.8796    0.2969   -1.0233 C   0  0  0  0  0  0  0  0  0  0  0  0
    5.2345    0.9053   -0.7270 C   0  0  0  0  0  0  0  0  0  0  0  0
    6.2984   -0.1449   -0.5176 C   0  0  0  0  0  0  0  0  0  0  0  0
    7.5419    0.5787   -0.2436 N   0  0  0  0  0  0  0  0  0  0  0  0
  1  2  1  0
  2  3  1  0
  2  4  1  0
  4  5  1  0
  5  6  3  0
  4  7  1  0
  7  8  1  0
  7  9  1  0
  9 10  1  0
 10 11  1  0
 11 12  1  0
 12 13  1  0
 13 14  1  0
 14 15  1  0
 15 16  1  0
 16 17  1  0
M  RAD  1  13   2
M  END

