
     RDKit          3D

 15 15  0  0  0  0  0  0  0  0999 V2000
   -0.3924   -0.0372   -0.1916 C   0  0  0  0  0  0  0  0  0  0  0  0
   -1.2655    0.4567   -1.1336 C   0  0  0  0  0  0  0  0  0  0  0  0
   -2.5701    0.1246   -1.0015 N   0  0  0  0  0  0  0  0  0  0  0  0
   -3.0050   -0.6540    0.0034 C   0  0  0  0  0  0  0  0  0  0  0  0
   -2.1311   -1.1484    0.9462 C   0  0  0  0  0  0  0  0  0  0  0  0
   -0.8396   -0.8257    0.8242 N   0  0  0  0  0  0  0  0  0  0  0  0
   -2.6420   -2.1671    2.2764 Cl  0  0  0  0  0  0  0  0  0  0  0  0
   -4.3761   -0.9960    0.1321 N   0  0  0  0  0  0  0  0  0  0  0  0
   -0.8116    1.2796   -2.1971 N   0  0  0  0  0  0  0  0  0  0  0  0
    1.0267    0.2989   -0.2992 C   0  0  0  0  0  0  0  0  0  0  0  0
    1.3677    1.0400   -1.2752 O   0  0  0  0  0  0  0  0  0  0  0  0
    1.9804   -0.1753    0.6359 N   0  0  0  0  0  0  0  0  0  0  0  0
    3.3281    0.1707    0.4951 C   0  0  0  0  0  0  0  0  0  0  0  0
    4.2153   -0.2420    1.3240 N   0  0  0  0  0  0  0  0  0  0  0  0
    3.7287    0.9936   -0.5827 N   0  0  0  0  0  0  0  0  0  0  0  0
  1  2  2  0
  2  3  1  0
  3  4  2  0
  4  5  1  0
  5  6  2  0
  5  7  1  0
  4  8  1  0
  2  9  1  0
  1 10  1  0
 10 11  2  0
 10 12  1  0
 12 13  1  0
 13 14  2  0
 13 15  1  0
  6  1  1  0
M  END

