
     RDKit          3D

 11 11  0  0  0  0  0  0  0  0999 V2000
    2.9957   -0.1706    0.7317 C   0  0  0  0  0  0  0  0  0  0  0  0
    1.9301    0.6917    0.3798 O   0  0  0  0  0  0  0  0  0  0  0  0
    0.6686    0.1473    0.1420 C   0  0  0  0  0  0  0  0  0  0  0  0
    0.4651   -1.2088    0.2485 C   0  0  0  0  0  0  0  0  0  0  0  0
   -0.7355   -1.7739    0.0276 N   0  0  0  0  0  0  0  0  0  0  0  0
   -1.7767   -0.9966   -0.3087 C   0  0  0  0  0  0  0  0  0  0  0  0
   -1.6713    0.3830   -0.4412 C   0  0  0  0  0  0  0  0  0  0  0  0
   -0.4150    0.9246   -0.2044 C   0  0  0  0  0  0  0  0  0  0  0  0
   -0.1312    2.6572   -0.3348 Cl  0  0  0  0  0  0  0  0  0  0  0  0
   -2.7599    1.2040   -0.7938 N   0  0  0  0  0  0  0  0  0  0  0  0
   -3.3515   -1.7348   -0.5988 Cl  0  0  0  0  0  0  0  0  0  0  0  0
  1  2  1  0
  2  3  1  0
  3  4  2  0
  4  5  1  0
  5  6  2  0
  6  7  1  0
  7  8  2  0
  8  9  1  0
  7 10  1  0
  6 11  1  0
  8  3  1  0
M  END

