
     RDKit          3D

 13 13  0  0  0  0  0  0  0  0999 V2000
   -3.0510   -2.3697    1.0353 C   0  0  0  0  0  0  0  0  0  0  0  0
   -2.4142   -1.0830    0.4850 C   0  0  0  0  0  0  0  0  0  0  0  0
   -0.9000   -1.2477    0.4557 C   0  0  0  0  0  0  0  0  0  0  0  0
   -0.3629   -2.4421    0.6938 N   0  0  0  0  0  0  0  0  0  0  0  0
    1.2880   -2.2398    0.5907 S   0  0  0  0  0  0  0  0  0  0  0  0
    1.2853   -0.5359    0.2231 C   0  0  0  0  0  0  0  0  0  0  0  0
    2.4922    0.2823    0.0493 C   0  0  0  0  0  0  0  0  0  0  0  0
    3.6487    0.0275    0.9688 C   0  0  0  0  0  0  0  0  0  0  0  0
    2.5626    1.1986   -0.8661 C   0  0  0  0  0  0  0  0  0  0  0  0
   -0.0442   -0.2229    0.2037 C   0  0  0  0  0  0  0  0  0  0  0  0
   -0.5491    1.1951   -0.0273 C   0  0  0  0  0  0  0  0  0  0  0  0
   -1.1630    1.4271   -1.3206 C   0  0  0  0  0  0  0  0  0  0  0  0
   -0.7564    2.3958   -2.1105 C   0  0  0  0  0  0  0  0  0  0  0  0
  1  2  1  0
  2  3  1  0
  3  4  2  0
  4  5  1  0
  5  6  1  0
  6  7  1  0
  7  8  1  0
  7  9  2  0
  6 10  2  0
 10 11  1  0
 11 12  1  0
 12 13  2  0
 10  3  1  0
M  END

