
     RDKit          3D

 12 12  0  0  0  0  0  0  0  0999 V2000
    3.5137    0.0938    0.8096 C   0  0  0  0  0  0  0  0  0  0  0  0
    2.8631   -1.0529    0.4092 C   0  0  0  0  0  0  0  0  0  0  0  0
    1.4850   -0.9639    0.1798 C   0  0  0  0  0  0  0  0  0  0  0  0
    0.7659    0.1883    0.3318 C   0  0  0  0  0  0  0  0  0  0  0  0
    1.4886    1.3086    0.7388 C   0  0  0  0  0  0  0  0  0  0  0  0
    2.8227    1.2748    0.9737 C   0  0  0  0  0  0  0  0  0  0  0  0
   -0.6598    0.3285    0.1062 C   0  0  0  0  0  0  0  0  0  0  0  0
   -1.2053    1.4547    0.2835 O   0  0  0  0  0  0  0  0  0  0  0  0
   -1.4700   -0.7611   -0.3094 N   0  0  0  0  0  0  0  0  0  0  0  0
   -2.8835   -0.5933   -0.5259 C   0  0  0  0  0  0  0  0  0  0  0  0
   -3.5538   -1.6249   -0.9017 N   0  0  0  0  0  0  0  0  0  0  0  0
   -3.4735    0.6706   -0.3229 N   0  0  0  0  0  0  0  0  0  0  0  0
  1  2  2  0
  2  3  1  0
  3  4  2  0
  4  5  1  0
  5  6  2  0
  4  7  1  0
  7  8  2  0
  7  9  1  0
  9 10  1  0
 10 11  2  0
 10 12  1  0
  6  1  1  0
M  END

