CC(C)C(C)C(C)(C)CC(O)C#CC(C)O
     RDKit          3D

 16 15  0  0  0  0  0  0  0  0999 V2000
   -4.0146   -0.4442    0.7123 C   0  0  0  0  0  0  0  0  0  0  0  0
   -3.1391    0.6605    0.2103 C   0  0  0  0  0  0  0  0  0  0  0  0
   -3.6146    1.0611   -1.1689 C   0  0  0  0  0  0  0  0  0  0  0  0
   -1.6942    0.5014    0.3550 C   0  0  0  0  0  0  0  0  0  0  0  0
   -1.3340    0.3605    1.8200 C   0  0  0  0  0  0  0  0  0  0  0  0
   -0.9724   -0.5350   -0.3938 C   0  0  0  0  0  0  0  0  0  0  0  0
   -1.0339   -0.4612   -1.9015 C   0  0  0  0  0  0  0  0  0  0  0  0
   -1.3767   -1.9533   -0.0562 C   0  0  0  0  0  0  0  0  0  0  0  0
    0.4943   -0.4195   -0.0190 C   0  0  0  0  0  0  0  0  0  0  0  0
    1.1277    0.8824   -0.3276 C   0  0  0  0  0  0  0  0  0  0  0  0
    1.1067    1.2280   -1.6724 O   0  0  0  0  0  0  0  0  0  0  0  0
    2.5546    0.7500    0.0698 C   0  0  0  0  0  0  0  0  0  0  0  0
    3.7144    0.6625    0.3965 C   0  0  0  0  0  0  0  0  0  0  0  0
    5.1177    0.5318    0.7933 C   0  0  0  0  0  0  0  0  0  0  0  0
    5.4768   -0.9309    0.6727 C   0  0  0  0  0  0  0  0  0  0  0  0
    5.9725    1.2304   -0.0623 O   0  0  0  0  0  0  0  0  0  0  0  0
  1  2  1  0
  2  3  1  0
  2  4  1  0
  4  5  1  0
  4  6  1  0
  6  7  1  0
  6  8  1  0
  6  9  1  0
  9 10  1  0
 10 11  1  0
 10 12  1  0
 12 13  3  0
 13 14  1  0
 14 15  1  0
 14 16  1  0
M  END

