
     RDKit          3D

 13 13  0  0  0  0  0  0  0  0999 V2000
    2.6715   -1.0650    0.7588 C   0  0  0  0  0  0  0  0  0  0  0  0
    2.8959    0.2946    0.2493 C   0  0  0  0  0  0  0  0  0  0  0  0
    4.2584    0.8548    0.2728 C   0  0  0  0  0  0  0  0  0  0  0  0
    5.0844    0.0397   -0.4967 O   0  0  0  0  0  0  0  0  0  0  0  0
    1.9330    0.9871   -0.2083 N   0  0  0  0  0  0  0  0  0  0  0  0
    0.6654    0.4555   -0.2260 N   0  0  0  0  0  0  0  0  0  0  0  0
   -0.3739    0.9946    0.2994 C   0  0  0  0  0  0  0  0  0  0  0  0
   -1.6401    0.2362    0.1557 C   0  0  0  0  0  0  0  0  0  0  0  0
   -2.8461    1.0945    0.4576 C   0  0  0  0  0  0  0  0  0  0  0  0
   -3.8808    0.6343   -0.3757 O   0  0  0  0  0  0  0  0  0  0  0  0
   -3.8549   -0.7557   -0.4362 C   0  0  0  0  0  0  0  0  0  0  0  0
   -2.6985   -1.2739   -1.2677 C   0  0  0  0  0  0  0  0  0  0  0  0
   -1.6625   -0.2515   -1.2184 N   0  0  0  0  0  0  0  0  0  0  0  0
  1  2  1  0
  2  3  1  0
  3  4  1  0
  2  5  2  3
  5  6  1  0
  6  7  2  3
  7  8  1  0
  8  9  1  0
  9 10  1  0
 10 11  1  0
 11 12  1  0
 12 13  1  0
 13  8  1  0
M  END

