
     RDKit          3D

 20 21  0  0  0  0  0  0  0  0999 V2000
    5.4994    1.4780    0.9834 C   0  0  0  0  0  0  0  0  0  0  0  0
    5.5570    0.2156    0.1475 C   0  0  0  0  0  0  0  0  0  0  0  0
    5.7321   -1.0137    1.0116 C   0  0  0  0  0  0  0  0  0  0  0  0
    6.8075    0.3377   -0.7256 C   0  0  0  0  0  0  0  0  0  0  0  0
    4.4630    0.1234   -0.7137 O   0  0  0  0  0  0  0  0  0  0  0  0
    3.1421    0.0830   -0.3109 C   0  0  0  0  0  0  0  0  0  0  0  0
    2.9050    0.1326    0.9179 O   0  0  0  0  0  0  0  0  0  0  0  0
    2.0742   -0.0081   -1.1716 O   0  0  0  0  0  0  0  0  0  0  0  0
    0.7446   -0.0476   -0.7395 C   0  0  0  0  0  0  0  0  0  0  0  0
   -0.0851    1.0598   -1.3620 C   0  0  0  0  0  0  0  0  0  0  0  0
   -1.5682    0.7137   -1.3022 C   0  0  0  0  0  0  0  0  0  0  0  0
   -1.7811   -0.1071   -0.0737 C   0  0  0  0  0  0  0  0  0  0  0  0
   -1.2412   -1.4903   -0.3373 C   0  0  0  0  0  0  0  0  0  0  0  0
    0.0766   -1.3741   -1.0746 C   0  0  0  0  0  0  0  0  0  0  0  0
   -3.2027   -0.1006    0.4183 C   0  0  0  0  0  0  0  0  0  0  0  0
   -3.6667    1.2983    0.7711 C   0  0  0  0  0  0  0  0  0  0  0  0
   -4.9421    1.1702    1.5675 C   0  0  0  0  0  0  0  0  0  0  0  0
   -6.0107    0.4218    0.8032 C   0  0  0  0  0  0  0  0  0  0  0  0
   -5.5115   -0.8548    0.2114 C   0  0  0  0  0  0  0  0  0  0  0  0
   -4.1962   -0.6687   -0.5585 C   0  0  0  0  0  0  0  0  0  0  0  0
  1  2  1  0
  2  3  1  0
  2  4  1  0
  2  5  1  0
  5  6  1  0
  6  7  2  0
  6  8  1  0
  8  9  1  0
  9 10  1  0
 10 11  1  0
 11 12  1  0
 12 13  1  0
 13 14  1  0
 12 15  1  0
 15 16  1  0
 16 17  1  0
 17 18  1  0
 18 19  1  0
 19 20  1  0
 14  9  1  0
 20 15  1  0
M  END

