
     RDKit          3D

 18 19  0  0  0  0  0  0  0  0999 V2000
   -1.1727    0.7940   -0.2400 C   0  0  0  0  0  0  0  0  0  0  0  0
   -2.4726    0.9532    0.1428 C   0  0  0  0  0  0  0  0  0  0  0  0
   -3.3624   -0.0631   -0.1628 C   0  0  0  0  0  0  0  0  0  0  0  0
   -2.9432   -1.2038   -0.8347 C   0  0  0  0  0  0  0  0  0  0  0  0
   -1.6300   -1.3027   -1.1895 C   0  0  0  0  0  0  0  0  0  0  0  0
   -0.6980   -0.3040   -0.9031 C   0  0  0  0  0  0  0  0  0  0  0  0
    0.6932   -0.4978   -1.2756 C   0  0  0  0  0  0  0  0  0  0  0  0
    1.6361   -0.4013   -0.3859 C   0  0  0  0  0  0  0  0  0  0  0  0
    1.5672   -0.1180    1.0257 C   0  0  0  0  0  0  0  0  0  0  0  0
    0.4686   -0.2090    1.6932 O   0  0  0  0  0  0  0  0  0  0  0  0
    2.7590    0.2589    1.6333 N   0  0  0  0  0  0  0  0  0  0  0  0
    3.8957    0.3208    0.8099 C   0  0  0  0  0  0  0  0  0  0  0  0
    5.0430    0.8652    0.9798 N   0  0  0  0  0  0  0  0  0  0  0  0
    5.9672    0.7506   -0.0313 O   0  0  0  0  0  0  0  0  0  0  0  0
    3.4101   -0.5978   -0.6785 S   0  0  0  0  0  0  0  0  0  0  0  0
   -4.7309    0.0534    0.2161 N   0  0  0  0  0  4  0  0  0  0  0  0
   -5.5390   -0.8573   -0.0235 O   0  0  0  0  0  0  0  0  0  0  0  0
   -5.2104    1.1631    0.8646 O   0  0  0  0  0  1  0  0  0  0  0  0
  1  2  2  0
  2  3  1  0
  3  4  2  0
  4  5  1  0
  5  6  2  0
  6  7  1  0
  7  8  2  0
  8  9  1  0
  9 10  2  0
  9 11  1  0
 11 12  1  0
 12 13  2  0
 13 14  1  0
 12 15  1  0
  3 16  1  0
 16 17  2  0
 16 18  1  0
  6  1  1  0
 15  8  1  0
M  CHG  2  16   1  18  -1
M  END

