
     RDKit          3D

 21 22  0  0  0  0  0  0  0  0999 V2000
   -6.7733   -0.1590   -0.3294 C   0  0  0  0  0  0  0  0  0  0  0  0
   -6.1537    1.1679   -0.4076 C   0  0  0  0  0  0  0  0  0  0  0  0
   -6.7476    2.0241   -1.0901 O   0  0  0  0  0  0  0  0  0  0  0  0
   -4.9008    1.4905    0.2779 C   0  0  0  0  0  0  0  0  0  0  0  0
   -4.0329    0.3350    0.6564 C   0  0  0  0  0  0  0  0  0  0  0  0
   -2.7898    0.8547    1.3779 C   0  0  0  0  0  0  0  0  0  0  0  0
   -1.5632    0.6224    0.5563 C   0  0  0  0  0  0  0  0  0  0  0  0
   -1.3521   -0.8845    0.3873 C   0  0  0  0  0  0  0  0  0  0  0  0
   -2.5434   -1.4307   -0.3306 C   0  0  0  0  0  0  0  0  0  0  0  0
   -3.6103   -0.3914   -0.6073 C   0  0  0  0  0  0  0  0  0  0  0  0
   -0.0842   -1.1038   -0.3666 C   0  0  0  0  0  0  0  0  0  0  0  0
   -0.0157   -1.6891   -1.4597 O   0  0  0  0  0  0  0  0  0  0  0  0
    1.1051   -0.6389    0.1566 O   0  0  0  0  0  0  0  0  0  0  0  0
    2.3634   -0.7720   -0.4367 C   0  0  0  0  0  0  0  0  0  0  0  0
    3.3666   -1.5147    0.3943 C   0  0  0  0  0  0  0  0  0  0  0  0
    4.2833   -0.5958    1.1644 C   0  0  0  0  0  0  0  0  0  0  0  0
    5.1925    0.0752    0.1450 C   0  0  0  0  0  0  0  0  0  0  0  0
    4.4361    0.2890   -1.1257 C   0  0  0  0  0  0  0  0  0  0  0  0
    2.9738    0.5579   -0.8335 C   0  0  0  0  0  0  0  0  0  0  0  0
    5.8052    1.2011    0.6335 O   0  0  0  0  0  0  0  0  0  0  0  0
    7.1860    1.0915    0.7358 C   0  0  0  0  0  0  0  0  0  0  0  0
  1  2  1  0
  2  3  2  0
  2  4  1  0
  4  5  1  0
  5  6  1  0
  6  7  1  0
  7  8  1  0
  8  9  1  0
  9 10  1  0
  8 11  1  0
 11 12  2  0
 11 13  1  0
 13 14  1  0
 14 15  1  0
 15 16  1  0
 16 17  1  0
 17 18  1  0
 18 19  1  0
 17 20  1  0
 20 21  1  0
 10  5  1  0
 19 14  1  0
M  END

