C1CC(=O)N(C2=C1C=CC(=C2)OCC(=O)N)C3=CC=C(C=C3)F
     RDKit          3D

 23 25  0  0  0  0  0  0  0  0999 V2000
   -1.0334   -3.2958    1.2890 C   0  0  0  0  0  0  0  0  0  0  0  0
   -2.4043   -3.1589    0.7792 C   0  0  0  0  0  0  0  0  0  0  0  0
   -2.8651   -1.8135    0.4142 C   0  0  0  0  0  0  0  0  0  0  0  0
   -4.0943   -1.6260    0.2753 O   0  0  0  0  0  0  0  0  0  0  0  0
   -1.9459   -0.7603    0.2243 N   0  0  0  0  0  0  0  0  0  0  0  0
   -0.5441   -0.9174    0.5587 C   0  0  0  0  0  0  0  0  0  0  0  0
   -0.1657   -2.1397    1.0655 C   0  0  0  0  0  0  0  0  0  0  0  0
    1.1837   -2.2880    1.4034 C   0  0  0  0  0  0  0  0  0  0  0  0
    2.0644   -1.2682    1.2334 C   0  0  0  0  0  0  0  0  0  0  0  0
    1.7011   -0.0039    0.7146 C   0  0  0  0  0  0  0  0  0  0  0  0
    0.3441    0.1100    0.3877 C   0  0  0  0  0  0  0  0  0  0  0  0
    2.5813    0.9532    0.5650 O   0  0  0  0  0  0  0  0  0  0  0  0
    3.6339    1.6867    0.5322 C   0  0  0  0  0  0  0  0  0  0  0  0
    4.7004    1.0722   -0.3610 C   0  0  0  0  0  0  0  0  0  0  0  0
    4.4445   -0.0236   -0.9219 O   0  0  0  0  0  0  0  0  0  0  0  0
    5.9102    1.7830   -0.4935 N   0  0  0  0  0  0  0  0  0  0  0  0
   -2.3451    0.5026   -0.3015 C   0  0  0  0  0  0  0  0  0  0  0  0
   -2.7716    0.6245   -1.6025 C   0  0  0  0  0  0  0  0  0  0  0  0
   -3.1849    1.8331   -2.1479 C   0  0  0  0  0  0  0  0  0  0  0  0
   -3.1716    2.9668   -1.3622 C   0  0  0  0  0  0  0  0  0  0  0  0
   -2.7433    2.8428   -0.0568 C   0  0  0  0  0  0  0  0  0  0  0  0
   -2.3349    1.6385    0.4763 C   0  0  0  0  0  0  0  0  0  0  0  0
   -3.5796    4.1633   -1.8933 F   0  0  0  0  0  0  0  0  0  0  0  0
  1  2  1  0
  2  3  1  0
  3  4  2  0
  3  5  1  0
  5  6  1  0
  6  7  2  0
  7  8  1  0
  8  9  2  0
  9 10  1  0
 10 11  2  0
 10 12  1  0
 12 13  1  0
 13 14  1  0
 14 15  2  0
 14 16  1  0
  5 17  1  0
 17 18  2  0
 18 19  1  0
 19 20  2  0
 20 21  1  0
 21 22  2  0
 20 23  1  0
  7  1  1  0
 11  6  1  0
 22 17  1  0
M  END

