C1C(CN2C(=CC=N2)N1)CNCC3=CC=CC=C3CO
     RDKit          3D

 20 22  0  0  0  0  0  0  0  0999 V2000
   -2.0769   -1.1650   -0.1000 C   0  0  0  0  0  0  0  0  0  0  0  0
   -2.0332    0.2980   -0.4804 C   0  0  0  0  0  0  0  0  0  0  0  0
   -3.2250    1.0596   -0.0270 C   0  0  0  0  0  0  0  0  0  0  0  0
   -4.4665    0.3539   -0.1370 N   0  0  0  0  0  0  0  0  0  0  0  0
   -4.5061   -0.9557   -0.4172 C   0  0  0  0  0  0  0  0  0  0  0  0
   -5.8574   -1.3275   -0.4516 C   0  0  0  0  0  0  0  0  0  0  0  0
   -6.5768   -0.1848   -0.1817 C   0  0  0  0  0  0  0  0  0  0  0  0
   -5.7054    0.8029    0.0013 N   0  0  0  0  0  0  0  0  0  0  0  0
   -3.3097   -1.6923   -0.6167 N   0  0  0  0  0  0  0  0  0  0  0  0
   -0.7977    0.9168    0.1890 C   0  0  0  0  0  0  0  0  0  0  0  0
    0.3596    0.2003   -0.3145 N   0  0  0  0  0  0  0  0  0  0  0  0
    1.5713    0.7496    0.2920 C   0  0  0  0  0  0  0  0  0  0  0  0
    2.7548    0.0121   -0.2270 C   0  0  0  0  0  0  0  0  0  0  0  0
    2.5957   -1.0156   -1.1400 C   0  0  0  0  0  0  0  0  0  0  0  0
    3.7208   -1.6739   -1.5959 C   0  0  0  0  0  0  0  0  0  0  0  0
    4.9964   -1.3523   -1.1814 C   0  0  0  0  0  0  0  0  0  0  0  0
    5.1384   -0.3206   -0.2667 C   0  0  0  0  0  0  0  0  0  0  0  0
    4.0195    0.3540    0.2041 C   0  0  0  0  0  0  0  0  0  0  0  0
    4.1687    1.4718    1.1947 C   0  0  0  0  0  0  0  0  0  0  0  0
    5.5127    1.6529    1.4938 O   0  0  0  0  0  0  0  0  0  0  0  0
  1  2  1  0
  2  3  1  0
  3  4  1  0
  4  5  1  0
  5  6  2  0
  6  7  1  0
  7  8  2  0
  5  9  1  0
  2 10  1  0
 10 11  1  0
 11 12  1  0
 12 13  1  0
 13 14  2  0
 14 15  1  0
 15 16  2  0
 16 17  1  0
 17 18  2  0
 18 19  1  0
 19 20  1  0
  9  1  1  0
  8  4  1  0
 18 13  1  0
M  END

