C=CC1=NN=CN=CNC1=CC#N
     RDKit          3D

 13 13  0  0  0  0  0  0  0  0999 V2000
   -2.9760    1.3002   -0.4916 C   0  0  0  0  0  0  0  0  0  0  0  0
   -2.1056    0.3089   -0.4314 C   0  0  0  0  0  0  0  0  0  0  0  0
   -0.7374    0.5217   -0.0138 C   0  0  0  0  0  0  0  0  0  0  0  0
   -0.4264    1.7460    0.2804 N   0  0  0  0  0  0  0  0  0  0  0  0
    0.7593    2.3923    0.7199 N   0  0  0  0  0  0  0  0  0  0  0  0
    2.0284    2.1045    0.6061 C   0  0  0  0  0  0  0  0  0  0  0  0
    2.8067    1.0747    0.0276 N   0  0  0  0  0  0  0  0  0  0  0  0
    2.5691   -0.1476   -0.3513 C   0  0  0  0  0  0  0  0  0  0  0  0
    1.3990   -0.9891   -0.3456 N   0  0  0  0  0  0  0  0  0  0  0  0
    0.0236   -0.7199   -0.0045 C   0  0  0  0  0  0  0  0  0  0  0  0
   -0.6482   -1.7704    0.3999 C   0  0  0  0  0  0  0  0  0  0  0  0
   -0.0225   -3.0521    0.4552 C   0  0  0  0  0  0  0  0  0  0  0  0
    0.4942   -4.0774    0.4927 N   0  0  0  0  0  0  0  0  0  0  0  0
  1  2  2  0
  2  3  1  0
  3  4  2  0
  4  5  1  0
  5  6  2  0
  6  7  1  0
  7  8  2  0
  8  9  1  0
  9 10  1  0
 10 11  2  3
 11 12  1  0
 12 13  3  0
 10  3  1  0
M  END

