CC(C)(C(=O)O)OC1=CC=C(C=C1)CNCC2=NC3=CC=CC=C3O2
     RDKit          3D

 25 27  0  0  0  0  0  0  0  0999 V2000
    6.7409   -0.4790    0.8706 C   0  0  0  0  0  0  0  0  0  0  0  0
    5.4359    0.1515    0.3020 C   0  0  0  0  0  0  0  0  0  0  0  0
    5.4211   -0.0475   -1.1767 C   0  0  0  0  0  0  0  0  0  0  0  0
    5.5902    1.6215    0.5896 C   0  0  0  0  0  0  0  0  0  0  0  0
    6.3770    2.2336   -0.2193 O   0  0  0  0  0  0  0  0  0  0  0  0
    4.9677    2.2671    1.6140 O   0  0  0  0  0  0  0  0  0  0  0  0
    4.4070   -0.4578    0.9818 O   0  0  0  0  0  0  0  0  0  0  0  0
    3.0812   -0.2163    0.5706 C   0  0  0  0  0  0  0  0  0  0  0  0
    2.2586    0.7561    1.0321 C   0  0  0  0  0  0  0  0  0  0  0  0
    0.9693    0.9487    0.5951 C   0  0  0  0  0  0  0  0  0  0  0  0
    0.4766    0.0716   -0.4008 C   0  0  0  0  0  0  0  0  0  0  0  0
    1.2949   -0.9193   -0.8843 C   0  0  0  0  0  0  0  0  0  0  0  0
    2.5700   -1.0818   -0.4260 C   0  0  0  0  0  0  0  0  0  0  0  0
   -0.9095    0.2330   -0.8179 C   0  0  0  0  0  0  0  0  0  0  0  0
   -1.5620   -1.0676   -0.9897 N   0  0  0  0  0  0  0  0  0  0  0  0
   -2.3164   -1.2303    0.2561 C   0  0  0  0  0  0  0  0  0  0  0  0
   -3.7293   -0.9883    0.0675 C   0  0  0  0  0  0  0  0  0  0  0  0
   -4.2029    0.3114    0.0871 N   0  0  0  0  0  0  0  0  0  0  0  0
   -5.5238    0.3015   -0.0894 C   0  0  0  0  0  0  0  0  0  0  0  0
   -6.4873    1.3115   -0.1503 C   0  0  0  0  0  0  0  0  0  0  0  0
   -7.8192    1.0175   -0.3453 C   0  0  0  0  0  0  0  0  0  0  0  0
   -8.1598   -0.3108   -0.4767 C   0  0  0  0  0  0  0  0  0  0  0  0
   -7.1977   -1.3109   -0.4156 C   0  0  0  0  0  0  0  0  0  0  0  0
   -5.8644   -1.0141   -0.2204 C   0  0  0  0  0  0  0  0  0  0  0  0
   -4.7389   -1.7364   -0.1167 O   0  0  0  0  0  0  0  0  0  0  0  0
  1  2  1  0
  2  3  1  0
  2  4  1  0
  4  5  2  0
  4  6  1  0
  2  7  1  0
  7  8  1  0
  8  9  2  0
  9 10  1  0
 10 11  2  0
 11 12  1  0
 12 13  2  0
 11 14  1  0
 14 15  1  0
 15 16  1  0
 16 17  1  0
 17 18  2  0
 18 19  1  0
 19 20  2  0
 20 21  1  0
 21 22  2  0
 22 23  1  0
 23 24  2  0
 24 25  1  0
 13  8  1  0
 25 17  1  0
 24 19  1  0
M  END

