
     RDKit          3D

 12 13  0  0  0  0  0  0  0  0999 V2000
    3.2331   -0.1832   -0.0780 C   0  0  0  0  0  0  0  0  0  0  0  0
    2.1370    0.6665   -0.3612 O   0  0  0  0  0  0  0  0  0  0  0  0
    0.8558    0.1845   -0.1107 C   0  0  0  0  0  0  0  0  0  0  0  0
   -0.2720    0.9403   -0.3554 C   0  0  0  0  0  0  0  0  0  0  0  0
   -1.5368    0.5187   -0.1294 N   0  0  0  0  0  0  0  0  0  0  0  0
   -1.6973   -0.7397    0.3742 C   0  0  0  0  0  0  0  0  0  0  0  0
   -3.0211   -0.9606    0.5239 N   0  0  0  0  0  0  0  0  0  0  0  0
   -3.6462    0.1384    0.1201 N   0  0  0  0  0  0  0  0  0  0  0  0
   -2.7539    1.0486   -0.2809 C   0  0  0  0  0  0  0  0  0  0  0  0
   -3.1723    2.7668   -0.9385 Br  0  0  0  0  0  0  0  0  0  0  0  0
   -0.5851   -1.5145    0.6271 C   0  0  0  0  0  0  0  0  0  0  0  0
    0.6541   -1.0498    0.3854 N   0  0  0  0  0  0  0  0  0  0  0  0
  1  2  1  0
  2  3  1  0
  3  4  2  0
  4  5  1  0
  5  6  1  0
  6  7  2  0
  7  8  1  0
  8  9  2  0
  9 10  1  0
  6 11  1  0
 11 12  2  0
 12  3  1  0
  9  5  1  0
M  END

