
     RDKit          3D

 12 12  0  0  0  0  0  0  0  0999 V2000
   -2.3005   -1.2727    0.5014 C   0  0  0  0  0  0  0  0  0  0  0  0
   -1.3483   -0.2163    0.1197 C   0  0  0  0  0  0  0  0  0  0  0  0
   -1.7451    1.1194    0.2405 C   0  0  0  0  0  0  0  0  0  0  0  0
   -1.0279    2.2834    0.0422 C   0  0  0  0  0  0  0  0  0  0  0  0
   -1.5684    3.3784    0.3526 O   0  0  0  0  0  0  0  0  0  0  0  0
    0.2323    2.4410   -0.4604 N   0  0  0  0  0  0  0  0  0  0  0  0
    1.1930    1.5089   -0.5603 C   0  0  0  0  0  0  0  0  0  0  0  0
    1.0874    0.1399   -0.3110 C   0  0  0  0  0  0  0  0  0  0  0  0
    2.3010   -0.5771   -0.0034 C   0  0  0  0  0  0  0  0  0  0  0  0
    2.3605   -1.7426    0.6005 C   0  0  0  0  0  0  0  0  0  0  0  0
   -0.0838   -0.5830   -0.3533 C   0  0  0  0  0  0  0  0  0  0  0  0
   -0.0673   -1.7504   -0.8891 N   0  0  0  0  0  0  0  0  0  0  0  0
  1  2  1  0
  2  3  2  0
  3  4  1  0
  4  5  2  0
  4  6  1  0
  6  7  1  0
  7  8  2  0
  8  9  1  0
  9 10  2  0
  8 11  1  0
 11 12  2  0
 11  2  1  0
M  END

