
     RDKit          3D

 17 17  0  0  0  0  0  0  0  0999 V2000
   -4.1544    1.4893    0.1288 C   0  0  0  0  0  0  0  0  0  0  0  0
   -3.4589    0.1846    0.4854 C   0  0  0  0  0  0  0  0  0  0  0  0
   -2.2417    0.0088   -0.2449 N   0  0  0  0  0  0  0  0  0  0  0  0
   -1.0024   -0.0610    0.4220 C   0  0  0  0  0  0  0  0  0  0  0  0
   -0.9922    0.0354    1.6789 O   0  0  0  0  0  0  0  0  0  0  0  0
    0.2918   -0.2461   -0.3319 C   0  0  0  0  0  0  0  0  0  0  0  0
   -0.0073   -0.3272   -1.7506 N   0  0  0  0  0  0  0  0  0  0  0  0
    0.8812   -1.5475    0.1771 C   0  0  0  0  0  0  0  0  0  0  0  0
    2.3192   -1.6942   -0.2439 C   0  0  0  0  0  0  0  0  0  0  0  0
    3.1460   -0.6025    0.1455 N   0  0  0  0  0  4  0  0  0  0  0  0
    2.4766    0.5497    0.6220 C   0  0  0  0  0  0  0  0  0  0  0  0
    1.2148    0.9009   -0.1199 C   0  0  0  0  0  0  0  0  0  0  0  0
    3.3785    1.7183    0.5441 C   0  0  0  0  0  0  0  0  0  0  0  0
    3.1287    2.9098    1.1990 O   0  0  0  0  0  1  0  0  0  0  0  0
    4.4176    1.6277   -0.1463 O   0  0  0  0  0  0  0  0  0  0  0  0
   -4.3542   -0.9609    0.2906 C   0  0  0  0  0  0  0  0  0  0  0  0
   -5.0563   -1.8763    0.1217 N   0  0  0  0  0  0  0  0  0  0  0  0
  1  2  1  0
  2  3  1  0
  3  4  1  0
  4  5  2  0
  4  6  1  0
  6  7  1  0
  6  8  1  0
  8  9  1  0
  9 10  1  0
 10 11  1  0
 11 12  1  0
 11 13  1  0
 13 14  1  0
 13 15  2  0
  2 16  1  0
 16 17  3  0
 12  6  1  0
M  CHG  2  10   1  14  -1
M  END

