
     RDKit          3D

 13 13  0  0  0  0  0  0  0  0999 V2000
    1.6677   -1.1890   -1.2217 C   0  0  0  0  0  0  0  0  0  0  0  0
    1.7498   -0.2364   -0.0583 C   0  0  0  0  0  0  0  0  0  0  0  0
    1.9484   -0.9352    1.1967 N   0  0  0  0  0  0  0  0  0  0  0  0
    0.5822    0.6890    0.0410 C   0  0  0  0  0  0  0  0  0  0  0  0
    0.3665    1.3754   -1.1514 O   0  0  0  0  0  0  0  0  0  0  0  0
   -0.5636    2.3662   -1.0715 C   0  0  0  0  0  0  0  0  0  0  0  0
   -1.5756    2.1925    0.0219 C   0  0  0  0  0  0  0  0  0  0  0  0
   -1.6612    1.0776    0.7095 C   0  0  0  0  0  0  0  0  0  0  0  0
   -0.7200   -0.0015    0.3640 C   0  0  0  0  0  0  0  0  0  0  0  0
   -1.2024   -0.6070   -0.8069 O   0  0  0  0  0  0  0  0  0  0  0  0
   -0.5875   -1.0311    1.4054 C   0  0  0  0  0  0  0  0  0  0  0  0
   -1.0357   -2.2269    1.2153 N   0  0  0  0  0  0  0  0  0  0  0  0
   -1.6532   -2.6346    0.0702 O   0  0  0  0  0  0  0  0  0  0  0  0
  1  2  1  0
  2  3  1  0
  2  4  1  0
  4  5  1  0
  5  6  1  0
  6  7  1  0
  7  8  2  0
  8  9  1  0
  9 10  1  0
  9 11  1  0
 11 12  2  3
 12 13  1  0
  9  4  1  0
M  END

