
     RDKit          3D

 14 13  0  0  0  0  0  0  0  0999 V2000
   -0.4865   -2.4492    0.0034 C   0  0  0  0  0  0  0  0  0  0  0  0
   -0.2984   -1.0625   -0.6293 C   0  0  0  0  0  0  0  0  0  0  0  0
   -1.1991   -0.1212   -0.0330 N   0  0  0  0  0  4  0  0  0  0  0  0
   -2.5053   -0.7879    0.0321 C   0  0  0  0  0  0  0  0  0  0  0  0
   -3.6374    0.2057    0.0379 C   0  0  0  0  0  0  0  0  0  0  0  0
   -3.5960    1.1227    1.1580 C   0  0  0  0  0  0  0  0  0  0  0  0
   -3.5744    1.8952    2.0753 C   0  0  0  0  0  0  0  0  0  0  0  0
    1.1661   -0.7319   -0.4569 C   0  0  0  0  0  0  0  0  0  0  0  0
    1.4663   -0.7237    0.9924 C   0  0  0  0  0  0  0  0  0  0  0  0
    1.6802   -0.7322    2.1388 N   0  0  0  0  0  0  0  0  0  0  0  0
    1.5624    0.5494   -1.0921 C   0  0  0  0  0  0  0  0  0  0  0  0
    0.8166    1.6403   -0.4944 N   0  0  0  0  0  0  0  0  0  0  0  0
    3.0201    0.8273   -0.9853 C   0  0  0  0  0  0  0  0  0  0  0  0
    3.5542    0.9294    0.3386 N   0  0  0  0  0  4  0  0  0  0  0  0
  1  2  1  0
  2  3  1  0
  3  4  1  0
  4  5  1  0
  5  6  1  0
  6  7  3  0
  2  8  1  0
  8  9  1  0
  9 10  3  0
  8 11  1  0
 11 12  1  0
 11 13  1  0
 13 14  1  0
M  CHG  2   3   1  14   1
M  END

