
     RDKit          3D

 12 12  0  0  0  0  0  0  0  0999 V2000
   -3.6352   -1.0231    0.4186 C   0  0  0  0  0  0  0  0  0  0  0  0
   -2.7587    0.4957    0.0366 S   0  0  0  0  0  6  0  0  0  0  0  0
   -3.2120    1.0182   -1.3171 O   0  0  0  0  0  0  0  0  0  0  0  0
   -3.1006    1.4626    1.1332 O   0  0  0  0  0  0  0  0  0  0  0  0
   -1.0461    0.1617    0.0041 C   0  0  0  0  0  0  0  0  0  0  0  0
   -0.4856   -0.7211   -0.8333 N   0  0  0  0  0  0  0  0  0  0  0  0
    0.8242   -0.9328   -0.8116 N   0  0  0  0  0  0  0  0  0  0  0  0
    1.6612   -0.3026    0.0207 C   0  0  0  0  0  0  0  0  0  0  0  0
    1.1353    0.6122    0.8989 C   0  0  0  0  0  0  0  0  0  0  0  0
   -0.2393    0.8437    0.8860 C   0  0  0  0  0  0  0  0  0  0  0  0
    3.1387   -0.5727    0.0117 C   0  0  0  0  0  0  0  0  0  0  0  0
    3.7887    0.3395   -0.9255 N   0  0  0  0  0  0  0  0  0  0  0  0
  1  2  1  0
  2  3  2  0
  2  4  2  0
  2  5  1  0
  5  6  2  0
  6  7  1  0
  7  8  2  0
  8  9  1  0
  9 10  2  0
  8 11  1  0
 11 12  1  0
 10  5  1  0
M  END

