
     RDKit          3D

 12 12  0  0  0  0  0  0  0  0999 V2000
    3.7660   -0.0940    0.7153 C   0  0  0  0  0  0  0  0  0  0  0  0
    2.8697   -0.3022   -0.2372 C   0  0  0  0  0  0  0  0  0  0  0  0
    1.4518   -0.2155    0.0832 C   0  0  0  0  0  0  0  0  0  0  0  0
    1.0809    0.0546    1.2538 O   0  0  0  0  0  0  0  0  0  0  0  0
    0.4491   -0.4186   -0.8515 O   0  0  0  0  0  0  0  0  0  0  0  0
   -0.8936   -0.3302   -0.5202 C   0  0  0  0  0  0  0  0  0  0  0  0
   -1.6793    0.7978   -0.5686 C   0  0  0  0  0  0  0  0  0  0  0  0
   -2.9352    0.5377   -0.1814 N   0  0  0  0  0  0  0  0  0  0  0  0
   -2.9757   -0.7610    0.1216 C   0  0  0  0  0  0  0  0  0  0  0  0
   -1.7340   -1.3284   -0.0755 C   0  0  0  0  0  0  0  0  0  0  0  0
   -1.1655    2.0766   -0.9909 N   0  0  0  0  0  0  0  0  0  0  0  0
   -0.7753    2.9224   -0.1478 O   0  0  0  0  0  0  0  0  0  0  0  0
  1  2  2  0
  2  3  1  0
  3  4  2  0
  3  5  1  0
  5  6  1  0
  6  7  2  0
  7  8  1  0
  8  9  1  0
  9 10  2  0
  7 11  1  0
 11 12  2  0
 10  6  1  0
M  END

