
     RDKit          3D

 22 22  0  0  0  0  0  0  0  0999 V2000
   -4.3119    3.2844   -0.0117 C   0  0  0  0  0  0  0  0  0  0  0  0
   -2.9014    2.8993    0.3782 C   0  0  0  0  0  0  0  0  0  0  0  0
   -2.6183    1.4525    0.0295 C   0  0  0  0  0  0  0  0  0  0  0  0
   -1.2156    1.1146    0.4319 C   0  0  0  0  0  0  0  0  0  0  0  0
   -0.6890   -0.6024    0.0866 Si  0  0  0  0  0  4  0  0  0  0  0  0
   -0.2381   -1.5652    1.5949 C   0  0  0  0  0  0  0  0  0  0  0  0
   -0.5382   -3.0261    1.5353 C   0  0  0  0  0  0  0  0  0  0  0  0
   -0.9190   -1.0149    2.8550 C   0  0  0  0  0  0  0  0  0  0  0  0
   -1.8800   -1.5752   -0.9490 C   0  0  0  0  0  0  0  0  0  0  0  0
   -1.1544   -2.8051   -1.4493 C   0  0  0  0  0  0  0  0  0  0  0  0
   -3.1357   -1.9760   -0.2852 C   0  0  0  0  0  0  0  0  0  0  0  0
    0.7654   -0.5154   -0.9049 O   0  0  0  0  0  0  0  0  0  0  0  0
    1.8875    0.1487   -0.5303 C   0  0  0  0  0  0  0  0  0  0  0  0
    2.9772    0.1621   -1.3726 C   0  0  0  0  0  0  0  0  0  0  0  0
    4.1530    0.8312   -1.0310 C   0  0  0  0  0  0  0  0  0  0  0  0
    4.2298    1.4986    0.1827 C   0  0  0  0  0  0  0  0  0  0  0  0
    3.1593    1.4925    1.0235 C   0  0  0  0  0  0  0  0  0  0  0  0
    2.0045    0.8225    0.6634 C   0  0  0  0  0  0  0  0  0  0  0  0
    5.4388    2.2024    0.5644 C   0  0  0  0  0  0  0  0  0  0  0  0
    6.4690    2.2562   -0.1523 O   0  0  0  0  0  0  0  0  0  0  0  0
    2.9332   -0.4960   -2.5946 O   0  0  0  0  0  0  0  0  0  0  0  0
    4.0408   -0.4949   -3.4749 C   0  0  0  0  0  0  0  0  0  0  0  0
  1  2  1  0
  2  3  1  0
  3  4  1  0
  4  5  1  0
  5  6  1  0
  6  7  1  0
  6  8  1  0
  5  9  1  0
  9 10  1  0
  9 11  1  0
  5 12  1  0
 12 13  1  0
 13 14  2  0
 14 15  1  0
 15 16  2  0
 16 17  1  0
 17 18  2  0
 16 19  1  0
 19 20  2  0
 14 21  1  0
 21 22  1  0
 18 13  1  0
M  END

