
     RDKit          3D

 13 13  0  0  0  0  0  0  0  0999 V2000
   -1.8676   -0.7428   -1.1465 C   0  0  0  0  0  0  0  0  0  0  0  0
   -1.3505   -0.6100    0.2516 C   0  0  0  0  0  0  0  0  0  0  0  0
   -2.4316   -0.2261    1.2348 C   0  0  0  0  0  0  0  0  0  0  0  0
   -0.2786    0.3619    0.3108 N   0  0  0  0  0  0  0  0  0  0  0  0
    0.9934    0.2095   -0.0160 N   0  0  0  0  0  0  0  0  0  0  0  0
    1.5965   -0.9656   -0.5181 C   0  0  0  0  0  0  0  0  0  0  0  0
    3.0598   -0.9794   -0.8352 C   0  0  0  0  0  0  0  0  0  0  0  0
    0.9323   -2.0101   -0.7080 O   0  0  0  0  0  0  0  0  0  0  0  0
    1.6062    1.4081    0.2161 C   0  0  0  0  0  0  0  0  0  0  0  0
    2.8492    1.5830   -0.0036 O   0  0  0  0  0  0  0  0  0  0  0  0
    0.7176    2.2916    0.6817 N   0  0  0  0  0  0  0  0  0  0  0  0
   -0.4571    1.6463    0.7425 C   0  0  0  0  0  0  0  0  0  0  0  0
   -1.5502    2.1478    1.1353 O   0  0  0  0  0  0  0  0  0  0  0  0
  1  2  1  0
  2  3  1  0
  2  4  1  0
  4  5  1  0
  5  6  1  0
  6  7  1  0
  6  8  2  0
  5  9  1  0
  9 10  2  0
  9 11  1  0
 11 12  1  0
 12 13  2  0
 12  4  1  0
M  END

