
     RDKit          3D

  9  9  0  0  0  0  0  0  0  0999 V2000
    0.2765    0.6996    0.0435 C   0  0  0  0  0  0  0  0  0  0  0  0
    1.6410    0.9997   -0.0456 C   0  0  0  0  0  0  0  0  0  0  0  0
    2.5348   -0.0354   -0.2251 C   0  0  0  0  0  0  0  0  0  0  0  0
    2.0486   -1.2773   -0.3048 N   0  0  0  0  0  0  0  0  0  0  0  0
    0.7448   -1.5637   -0.2196 N   0  0  0  0  0  0  0  0  0  0  0  0
   -0.1723   -0.5984   -0.0450 C   0  0  0  0  0  0  0  0  0  0  0  0
   -1.6210   -0.9141    0.0500 C   0  0  0  0  0  0  0  0  0  0  0  0
   -2.4121    0.2665    0.2351 N   0  0  0  0  0  0  0  0  0  0  0  0
    3.8671    0.2407   -0.3138 F   0  0  0  0  0  0  0  0  0  0  0  0
  1  2  2  0
  2  3  1  0
  3  4  2  0
  4  5  1  0
  5  6  2  0
  6  7  1  0
  7  8  1  0
  3  9  1  0
  6  1  1  0
M  END

