B1(OC(C(O1)(C)C)(C)C)C2=C(C=C(C=C2)C(=O)N3CC(C3)(F)F)C
     RDKit          3D

 24 26  0  0  0  0  0  0  0  0999 V2000
   -1.5888   -0.1600   -0.0561 B   0  0  0  0  0  0  0  0  0  0  0  0
   -2.5827   -1.2314    0.0214 O   0  0  0  0  0  0  0  0  0  0  0  0
   -3.7689   -0.6198    0.4254 C   0  0  0  0  0  0  0  0  0  0  0  0
   -3.5972    0.7706   -0.1131 C   0  0  0  0  0  0  0  0  0  0  0  0
   -2.2877    1.0675    0.2645 O   0  0  0  0  0  0  0  0  0  0  0  0
   -4.5860    1.7510    0.4658 C   0  0  0  0  0  0  0  0  0  0  0  0
   -3.6383    0.7195   -1.6137 C   0  0  0  0  0  0  0  0  0  0  0  0
   -4.9555   -1.3314   -0.1829 C   0  0  0  0  0  0  0  0  0  0  0  0
   -3.8250   -0.6768    1.9269 C   0  0  0  0  0  0  0  0  0  0  0  0
   -0.0748   -0.4173   -0.2755 C   0  0  0  0  0  0  0  0  0  0  0  0
    0.8619    0.5050    0.1476 C   0  0  0  0  0  0  0  0  0  0  0  0
    2.2178    0.2901   -0.0409 C   0  0  0  0  0  0  0  0  0  0  0  0
    2.6455   -0.8576   -0.6573 C   0  0  0  0  0  0  0  0  0  0  0  0
    1.7019   -1.7989   -1.0905 C   0  0  0  0  0  0  0  0  0  0  0  0
    0.3669   -1.5567   -0.8896 C   0  0  0  0  0  0  0  0  0  0  0  0
    4.0282   -1.1628   -0.8579 C   0  0  0  0  0  0  0  0  0  0  0  0
    4.3111   -2.2043   -1.5715 O   0  0  0  0  0  0  0  0  0  0  0  0
    5.0875   -0.3937   -0.3228 N   0  0  0  0  0  0  0  0  0  0  0  0
    6.5655   -0.5035   -0.4423 C   0  0  0  0  0  0  0  0  0  0  0  0
    6.6686    0.1397    0.9007 C   0  0  0  0  0  0  0  0  0  0  0  0
    5.2918    0.7202    0.5353 C   0  0  0  0  0  0  0  0  0  0  0  0
    6.5927   -0.7510    1.9280 F   0  0  0  0  0  0  0  0  0  0  0  0
    7.6407    1.1116    1.0229 F   0  0  0  0  0  0  0  0  0  0  0  0
    0.3554    1.7235    0.8064 C   0  0  0  0  0  0  0  0  0  0  0  0
  1  2  1  0
  2  3  1  0
  3  4  1  0
  4  5  1  0
  4  6  1  0
  4  7  1  0
  3  8  1  0
  3  9  1  0
  1 10  1  0
 10 11  2  0
 11 12  1  0
 12 13  2  0
 13 14  1  0
 14 15  2  0
 13 16  1  0
 16 17  2  0
 16 18  1  0
 18 19  1  0
 19 20  1  0
 20 21  1  0
 20 22  1  0
 20 23  1  0
 11 24  1  0
  5  1  1  0
 15 10  1  0
 21 18  1  0
M  END

