
     RDKit          3D

 13 14  0  0  0  0  0  0  0  0999 V2000
    1.2928   -1.7709    1.1416 C   0  0  0  0  0  0  0  0  0  0  0  0
    0.7918   -0.9019    0.0575 N   0  0  0  0  0  0  0  0  0  0  0  0
    1.7858   -0.3382   -0.7976 C   0  0  0  0  0  0  0  0  0  0  0  0
    2.6695    0.6454   -0.0886 C   0  0  0  0  0  0  0  0  0  0  0  0
    2.8025    1.9866   -0.7711 C   0  0  0  0  0  0  0  0  0  0  0  0
    2.1487    1.7913    0.4968 O   0  0  0  0  0  0  0  0  0  0  0  0
   -0.5810   -0.7380   -0.0250 N   0  0  0  0  0  0  0  0  0  0  0  0
   -1.4509   -1.7297   -0.2914 N   0  0  0  0  0  0  0  0  0  0  0  0
   -2.6874   -1.2607   -0.2998 C   0  0  0  0  0  0  0  0  0  0  0  0
   -2.5978    0.0577   -0.0327 N   0  0  0  0  0  0  0  0  0  0  0  0
   -3.7698    0.9098    0.0370 C   0  0  0  0  0  0  0  0  0  0  0  0
   -1.2924    0.3780    0.1367 C   0  0  0  0  0  0  0  0  0  0  0  0
   -0.8829    1.5314    0.3968 O   0  0  0  0  0  0  0  0  0  0  0  0
  1  2  1  0
  2  3  1  0
  3  4  1  0
  4  5  1  0
  5  6  1  0
  2  7  1  0
  7  8  1  0
  8  9  2  0
  9 10  1  0
 10 11  1  0
 10 12  1  0
 12 13  2  0
  6  4  1  0
 12  7  1  0
M  END

