
     RDKit          3D

 25 28  0  0  0  0  0  0  0  0999 V2000
    7.7957   -1.4408    1.2010 C   0  0  0  0  0  0  0  0  0  0  0  0
    6.9105   -0.2988    0.7191 C   0  0  0  0  0  0  0  0  0  0  0  0
    5.5915   -0.2651    1.4739 C   0  0  0  0  0  0  0  0  0  0  0  0
    4.8223    0.8547    0.9699 N   0  0  0  0  0  0  0  0  0  0  0  0
    5.2883    2.1809    1.2585 C   0  0  0  0  0  0  0  0  0  0  0  0
    3.6403    0.6910    0.1695 C   0  0  0  0  0  0  0  0  0  0  0  0
    2.6737   -0.2323    0.5035 C   0  0  0  0  0  0  0  0  0  0  0  0
    1.4933   -0.3667   -0.2530 C   0  0  0  0  0  0  0  0  0  0  0  0
    1.2677    0.4401   -1.3727 C   0  0  0  0  0  0  0  0  0  0  0  0
    2.2625    1.3625   -1.6834 C   0  0  0  0  0  0  0  0  0  0  0  0
    3.4106    1.4822   -0.9374 C   0  0  0  0  0  0  0  0  0  0  0  0
    0.0927    0.2679   -2.2585 C   0  0  0  0  0  0  0  0  0  0  0  0
   -1.1827    0.1819   -1.5917 C   0  0  0  0  0  0  0  0  0  0  0  0
   -1.8036    1.2195   -0.9539 C   0  0  0  0  0  0  0  0  0  0  0  0
   -3.0736    1.0771   -0.3268 C   0  0  0  0  0  0  0  0  0  0  0  0
   -3.7016   -0.1376   -0.3591 C   0  0  0  0  0  0  0  0  0  0  0  0
   -3.0766   -1.1947   -1.0059 C   0  0  0  0  0  0  0  0  0  0  0  0
   -1.8608   -1.0423   -1.6017 C   0  0  0  0  0  0  0  0  0  0  0  0
   -4.9975   -0.3823    0.2700 N   0  0  0  0  0  0  0  0  0  0  0  0
   -5.0219   -0.2513    1.6995 C   0  0  0  0  0  0  0  0  0  0  0  0
   -6.0861   -0.7287   -0.5942 C   0  0  0  0  0  0  0  0  0  0  0  0
   -7.1635    0.3049   -0.7180 C   0  0  0  0  0  0  0  0  0  0  0  0
   -7.7878    0.5552    0.6162 C   0  0  0  0  0  0  0  0  0  0  0  0
   -2.4295    2.3007   -0.3004 O   0  0  0  0  0  0  0  0  0  0  0  0
    1.7090   -1.1860    0.8739 O   0  0  0  0  0  0  0  0  0  0  0  0
  1  2  1  0
  2  3  1  0
  3  4  1  0
  4  5  1  0
  4  6  1  0
  6  7  2  0
  7  8  1  0
  8  9  2  0
  9 10  1  0
 10 11  2  0
  9 12  1  0
 12 13  1  0
 13 14  2  0
 14 15  1  0
 15 16  2  0
 16 17  1  0
 17 18  2  0
 16 19  1  0
 19 20  1  0
 19 21  1  0
 21 22  1  0
 22 23  1  0
 15 24  1  0
  8 25  1  0
 11  6  1  0
 25  7  1  0
 18 13  1  0
 24 14  1  0
M  END

