
     RDKit          3D

 12 12  0  0  0  0  0  0  0  0999 V2000
    0.3809   -1.3584    1.0944 C   0  0  0  0  0  0  0  0  0  0  0  0
   -0.9916   -1.3549    1.2161 C   0  0  0  0  0  0  0  0  0  0  0  0
   -1.7410   -0.3734    0.6065 C   0  0  0  0  0  0  0  0  0  0  0  0
   -1.1257    0.5992   -0.1204 C   0  0  0  0  0  0  0  0  0  0  0  0
    0.2612    0.5885   -0.2385 C   0  0  0  0  0  0  0  0  0  0  0  0
    1.0160   -0.3773    0.3598 C   0  0  0  0  0  0  0  0  0  0  0  0
    2.3681   -0.4062    0.2575 O   0  0  0  0  0  0  0  0  0  0  0  0
    3.1199    0.5133   -0.4452 C   0  0  0  0  0  0  0  0  0  0  0  0
    4.0361    1.0941    0.4192 F   0  0  0  0  0  0  0  0  0  0  0  0
    3.8052   -0.2062   -1.4429 F   0  0  0  0  0  0  0  0  0  0  0  0
   -1.8893    1.5955   -0.7390 O   0  0  0  0  0  0  0  0  0  0  0  0
   -3.1788   -0.3669    0.7321 N   0  0  0  0  0  0  0  0  0  0  0  0
  1  2  2  0
  2  3  1  0
  3  4  2  0
  4  5  1  0
  5  6  2  0
  6  7  1  0
  7  8  1  0
  8  9  1  0
  8 10  1  0
  4 11  1  0
  3 12  1  0
  6  1  1  0
M  END

