
     RDKit          3D

 19 21  0  0  0  0  0  0  0  0999 V2000
   -1.2821    0.1736    1.8345 C   0  0  0  0  0  0  0  0  0  0  0  0
    0.0578    0.1901    1.1432 C   0  0  0  0  0  0  0  0  0  0  0  0
    0.1104   -0.8526    0.1552 N   0  0  0  0  0  0  0  0  0  0  0  0
   -1.0217   -1.7611   -0.0847 C   0  0  0  0  0  0  0  0  0  0  0  0
   -2.2300   -0.8707   -0.1569 C   0  0  0  0  0  0  0  0  0  0  0  0
   -3.1714   -1.0205   -1.1485 C   0  0  0  0  0  0  0  0  0  0  0  0
   -4.2470   -0.1487   -1.1370 C   0  0  0  0  0  0  0  0  0  0  0  0
   -4.3710    0.8416   -0.1593 C   0  0  0  0  0  0  0  0  0  0  0  0
   -3.3918    0.9624    0.8338 C   0  0  0  0  0  0  0  0  0  0  0  0
   -2.3339    0.0987    0.8158 C   0  0  0  0  0  0  0  0  0  0  0  0
    1.2814   -1.0368   -0.6424 C   0  0  0  0  0  0  0  0  0  0  0  0
    1.3348   -1.9570   -1.5111 O   0  0  0  0  0  0  0  0  0  0  0  0
    2.4517   -0.1811   -0.4908 C   0  0  0  0  0  0  0  0  0  0  0  0
    3.5820   -0.3730   -1.2711 C   0  0  0  0  0  0  0  0  0  0  0  0
    4.6515    0.4553   -1.0905 C   0  0  0  0  0  0  0  0  0  0  0  0
    5.6731    0.2710   -1.8057 O   0  0  0  0  0  0  0  0  0  0  0  0
    4.6889    1.4645   -0.1921 N   0  0  0  0  0  0  0  0  0  0  0  0
    3.5750    1.6188    0.5453 C   0  0  0  0  0  0  0  0  0  0  0  0
    2.5044    0.8250    0.3966 N   0  0  0  0  0  0  0  0  0  0  0  0
  1  2  1  0
  2  3  1  0
  3  4  1  0
  4  5  1  0
  5  6  2  0
  6  7  1  0
  7  8  2  0
  8  9  1  0
  9 10  2  0
  3 11  1  0
 11 12  2  0
 11 13  1  0
 13 14  2  0
 14 15  1  0
 15 16  2  0
 15 17  1  0
 17 18  1  0
 18 19  2  0
 10  1  1  0
 10  5  1  0
 19 13  1  0
M  END

