
     RDKit          3D

 11 11  0  0  0  0  0  0  0  0999 V2000
   -0.0163    1.8406   -0.2003 C   0  0  0  0  0  0  0  0  0  0  0  0
    0.7879    0.5672   -0.1911 C   0  0  0  0  0  0  0  0  0  0  0  0
    2.1416    0.7229    0.1013 C   0  0  0  0  0  0  0  0  0  0  0  0
    2.8798   -0.4687    0.1074 C   0  0  0  0  0  0  0  0  0  0  0  0
    2.2688   -1.6681   -0.1672 C   0  0  0  0  0  0  0  0  0  0  0  0
    0.9294   -1.7425   -0.4480 N   0  0  0  0  0  0  0  0  0  0  0  0
    0.1697   -0.5832   -0.4530 C   0  0  0  0  0  0  0  0  0  0  0  0
   -1.3198   -0.6798   -0.7340 C   0  0  0  0  0  0  0  0  0  0  0  0
   -2.0432   -0.0208    0.3774 N   0  0  0  0  0  0  0  0  0  0  0  0
   -2.9386   -0.7863    1.0583 N   0  0  0  0  0  0  0  0  0  0  0  0
    4.7238   -0.5149    0.6174 Br  0  0  0  0  0  0  0  0  0  0  0  0
  1  2  1  0
  2  3  2  0
  3  4  1  0
  4  5  2  0
  5  6  1  0
  6  7  2  0
  7  8  1  0
  8  9  1  0
  9 10  1  0
  4 11  1  0
  7  2  1  0
M  END

