
     RDKit          3D

 11 11  0  0  0  0  0  0  0  0999 V2000
   -0.3166    2.3424    1.1090 C   0  0  0  0  0  0  0  0  0  0  0  0
   -0.7965    1.1109    0.4945 N   0  0  0  0  0  0  0  0  0  0  0  0
   -0.0238    0.0917    0.0905 C   0  0  0  0  0  0  0  0  0  0  0  0
   -0.8904   -0.8487   -0.4234 C   0  0  0  0  0  0  0  0  0  0  0  0
   -2.2027   -0.3740   -0.3204 C   0  0  0  0  0  0  0  0  0  0  0  0
   -2.0758    0.8368    0.2530 N   0  0  0  0  0  0  0  0  0  0  0  0
   -3.3891   -1.0384   -0.7348 N   0  0  0  0  0  0  0  0  0  0  0  0
    1.4299    0.0169    0.1856 C   0  0  0  0  0  0  0  0  0  0  0  0
    2.0845    0.9631    0.6833 O   0  0  0  0  0  0  0  0  0  0  0  0
    2.1238   -1.1216   -0.2809 N   0  0  0  0  0  0  0  0  0  0  0  0
    3.5154   -1.1758   -0.1817 N   0  0  0  0  0  0  0  0  0  0  0  0
  1  2  1  0
  2  3  1  0
  3  4  2  0
  4  5  1  0
  5  6  2  0
  5  7  1  0
  3  8  1  0
  8  9  2  0
  8 10  1  0
 10 11  1  0
  6  2  1  0
M  END

