
     RDKit          3D

 15 16  0  0  0  0  0  0  0  0999 V2000
    1.9587    0.1143    1.0742 C   0  0  0  0  0  0  0  0  0  0  0  0
    3.0543   -0.6329    0.7145 C   0  0  0  0  0  0  0  0  0  0  0  0
    3.1919   -1.0927   -0.5842 C   0  0  0  0  0  0  0  0  0  0  0  0
    2.2140   -0.7938   -1.5194 C   0  0  0  0  0  0  0  0  0  0  0  0
    1.1235   -0.0507   -1.1538 C   0  0  0  0  0  0  0  0  0  0  0  0
    0.9828    0.4109    0.1412 C   0  0  0  0  0  0  0  0  0  0  0  0
   -0.1363    1.2237    0.5589 C   0  0  0  0  0  0  0  0  0  0  0  0
   -1.3537    0.8573    0.2537 C   0  0  0  0  0  0  0  0  0  0  0  0
   -2.6333    1.4739    0.5346 C   0  0  0  0  0  0  0  0  0  0  0  0
   -2.6940    2.6133    1.1311 O   0  0  0  0  0  0  0  0  0  0  0  0
   -3.7577    0.7734    0.1277 N   0  0  0  0  0  0  0  0  0  0  0  0
   -3.5295   -0.4756   -0.5194 C   0  0  0  0  0  0  0  0  0  0  0  0
   -4.4001   -1.3251   -0.9537 N   0  0  0  0  0  0  0  0  0  0  0  0
   -1.7497   -0.6486   -0.6312 S   0  0  0  0  0  0  0  0  0  0  0  0
    4.3211   -1.8487   -0.9078 O   0  0  0  0  0  0  0  0  0  0  0  0
  1  2  2  0
  2  3  1  0
  3  4  2  0
  4  5  1  0
  5  6  2  0
  6  7  1  0
  7  8  2  0
  8  9  1  0
  9 10  2  0
  9 11  1  0
 11 12  1  0
 12 13  2  0
 12 14  1  0
  3 15  1  0
  6  1  1  0
 14  8  1  0
M  END

