
     RDKit          3D

 23 25  0  0  0  0  0  0  0  0999 V2000
   -7.8437   -0.8618    0.1432 C   0  0  0  0  0  0  0  0  0  0  0  0
   -6.3316   -0.6282    0.0483 C   0  0  0  0  0  0  0  0  0  0  0  0
   -5.7393   -1.7553   -0.7262 C   0  0  0  0  0  0  0  0  0  0  0  0
   -4.3507   -1.4641   -1.2395 C   0  0  0  0  0  0  0  0  0  0  0  0
   -3.8823   -0.1571   -0.6336 C   0  0  0  0  0  0  0  0  0  0  0  0
   -4.7610    0.9631   -1.0992 C   0  0  0  0  0  0  0  0  0  0  0  0
   -6.1561    0.7187   -0.6148 C   0  0  0  0  0  0  0  0  0  0  0  0
   -2.5391    0.0528   -0.8280 O   0  0  0  0  0  0  0  0  0  0  0  0
   -1.7971    0.0765    0.3430 C   0  0  0  0  0  0  0  0  0  0  0  0
   -0.8384   -1.0672    0.3688 C   0  0  0  0  0  0  0  0  0  0  0  0
    0.4691   -0.8296   -0.2729 C   0  0  0  0  0  0  0  0  0  0  0  0
    0.9705    0.5667   -0.2587 C   0  0  0  0  0  0  0  0  0  0  0  0
    0.3140    1.3258    0.8639 C   0  0  0  0  0  0  0  0  0  0  0  0
   -1.1649    1.4133    0.6070 C   0  0  0  0  0  0  0  0  0  0  0  0
    2.4148    0.5882   -0.0080 C   0  0  0  0  0  0  0  0  0  0  0  0
    3.5930    0.5912    0.2114 C   0  0  0  0  0  0  0  0  0  0  0  0
    5.0173    0.5722    0.4882 C   0  0  0  0  0  0  0  0  0  0  0  0
    5.4410   -0.7341    1.1309 C   0  0  0  0  0  0  0  0  0  0  0  0
    6.9047   -0.6009    1.4955 C   0  0  0  0  0  0  0  0  0  0  0  0
    7.7501   -0.4990    0.2394 C   0  0  0  0  0  0  0  0  0  0  0  0
    6.8510   -0.3194   -0.9529 C   0  0  0  0  0  0  0  0  0  0  0  0
    5.8715    0.8042   -0.7152 C   0  0  0  0  0  0  0  0  0  0  0  0
    8.6243    0.5774    0.3029 O   0  0  0  0  0  0  0  0  0  0  0  0
  1  2  1  0
  2  3  1  0
  3  4  1  0
  4  5  1  0
  5  6  1  0
  6  7  1  0
  5  8  1  0
  8  9  1  0
  9 10  1  0
 10 11  1  0
 11 12  1  0
 12 13  1  0
 13 14  1  0
 12 15  1  0
 15 16  3  0
 16 17  1  0
 17 18  1  0
 18 19  1  0
 19 20  1  0
 20 21  1  0
 21 22  1  0
 20 23  1  0
  7  2  1  0
 14  9  1  0
 22 17  1  0
M  END

