C1CNCC1(C(=O)O)N2C=CN=C2
     RDKit          3D

 13 14  0  0  0  0  0  0  0  0999 V2000
   -1.3474    0.5690   -0.6515 C   0  0  0  0  0  0  0  0  0  0  0  0
   -1.8429   -0.8014   -1.0356 C   0  0  0  0  0  0  0  0  0  0  0  0
   -0.9520   -1.7559   -0.3645 N   0  0  0  0  0  0  0  0  0  0  0  0
   -0.6033   -1.0688    0.8584 C   0  0  0  0  0  0  0  0  0  0  0  0
   -0.2431    0.3203    0.3131 C   0  0  0  0  0  0  0  0  0  0  0  0
   -0.2411    1.3348    1.3975 C   0  0  0  0  0  0  0  0  0  0  0  0
    0.7912    2.0461    1.5226 O   0  0  0  0  0  0  0  0  0  0  0  0
   -1.2897    1.5311    2.2536 O   0  0  0  0  0  0  0  0  0  0  0  0
    1.0581    0.1873   -0.2948 N   0  0  0  0  0  0  0  0  0  0  0  0
    2.1632   -0.2334    0.3052 C   0  0  0  0  0  0  0  0  0  0  0  0
    3.2262   -0.2363   -0.5753 C   0  0  0  0  0  0  0  0  0  0  0  0
    2.7172    0.2028   -1.7416 N   0  0  0  0  0  0  0  0  0  0  0  0
    1.3953    0.4602   -1.5676 C   0  0  0  0  0  0  0  0  0  0  0  0
  1  2  1  0
  2  3  1  0
  3  4  1  0
  4  5  1  0
  5  6  1  0
  6  7  2  0
  6  8  1  0
  5  9  1  0
  9 10  1  0
 10 11  2  0
 11 12  1  0
 12 13  2  0
  5  1  1  0
 13  9  1  0
M  END

