
     RDKit          3D

 11 10  0  0  0  0  0  0  0  0999 V2000
    3.7427    0.9028   -0.6507 N   0  0  0  0  0  0  0  0  0  0  0  0
    3.7510   -0.3084    0.0759 C   0  0  0  0  0  0  0  0  0  0  0  0
    4.8421   -0.8579    0.3230 O   0  0  0  0  0  0  0  0  0  0  0  0
    2.4808   -0.8919    0.5225 C   0  0  0  0  0  0  0  0  0  0  0  0
    1.3699   -0.0855    0.1226 O   0  0  0  0  0  0  0  0  0  0  0  0
    0.0730   -0.4416    0.4348 C   0  0  0  0  0  0  0  0  0  0  0  0
   -0.0516   -1.5278    1.0965 O   0  0  0  0  0  0  0  0  0  0  0  0
   -1.0863    0.3452    0.0502 C   0  0  0  0  0  0  0  0  0  0  0  0
   -2.2912   -0.0546    0.3817 C   0  0  0  0  0  0  0  0  0  0  0  0
   -3.4648    0.7202    0.0055 C   0  0  0  0  0  0  0  0  0  0  0  0
   -4.6526    0.2762    0.3623 C   0  0  0  0  0  0  0  0  0  0  0  0
  1  2  1  0
  2  3  2  0
  2  4  1  0
  4  5  1  0
  5  6  1  0
  6  7  2  0
  6  8  1  0
  8  9  2  3
  9 10  1  0
 10 11  2  0
M  END

