
     RDKit          3D

 12 12  0  0  0  0  0  0  0  0999 V2000
   -0.0526   -0.8935   -0.7307 C   0  0  0  0  0  0  0  0  0  0  0  0
   -1.3773   -0.5010   -0.7858 C   0  0  0  0  0  0  0  0  0  0  0  0
   -1.9280    0.2838    0.2067 C   0  0  0  0  0  0  0  0  0  0  0  0
   -1.1165    0.6425    1.2193 N   0  0  0  0  0  0  0  0  0  0  0  0
    0.1760    0.2743    1.2971 C   0  0  0  0  0  0  0  0  0  0  0  0
    0.7571   -0.5101    0.3213 C   0  0  0  0  0  0  0  0  0  0  0  0
    2.1049   -0.8953    0.4006 O   0  0  0  0  0  0  0  0  0  0  0  0
    3.0263    0.0121   -0.2218 C   0  0  0  0  0  0  0  0  0  0  0  0
    2.8597    1.2291    0.4464 F   0  0  0  0  0  0  0  0  0  0  0  0
    2.5679    0.2038   -1.5101 F   0  0  0  0  0  0  0  0  0  0  0  0
    4.6776   -0.5706   -0.1446 Cl  0  0  0  0  0  0  0  0  0  0  0  0
   -3.3030    0.7035    0.1695 N   0  0  0  0  0  0  0  0  0  0  0  0
  1  2  2  0
  2  3  1  0
  3  4  2  0
  4  5  1  0
  5  6  2  0
  6  7  1  0
  7  8  1  0
  8  9  1  0
  8 10  1  0
  8 11  1  0
  3 12  1  0
  6  1  1  0
M  END

