C1CSC(=S)NC1C(=O)O
     RDKit          3D

 10 10  0  0  0  0  0  0  0  0999 V2000
   -0.1099   -1.0194   -0.2094 C   0  0  0  0  0  0  0  0  0  0  0  0
   -1.4967   -1.0673   -0.8000 C   0  0  0  0  0  0  0  0  0  0  0  0
   -2.6626   -0.0235    0.1182 S   0  0  0  0  0  0  0  0  0  0  0  0
   -1.6544    1.1409    1.0243 C   0  0  0  0  0  0  0  0  0  0  0  0
   -2.2930    2.0097    2.2556 S   0  0  0  0  0  0  0  0  0  0  0  0
   -0.3071    1.2815    0.6445 N   0  0  0  0  0  0  0  0  0  0  0  0
    0.4593    0.3639   -0.1323 C   0  0  0  0  0  0  0  0  0  0  0  0
    1.8098    0.2572    0.4715 C   0  0  0  0  0  0  0  0  0  0  0  0
    2.1154    0.9126    1.4956 O   0  0  0  0  0  0  0  0  0  0  0  0
    2.7449   -0.5712   -0.0960 O   0  0  0  0  0  0  0  0  0  0  0  0
  1  2  1  0
  2  3  1  0
  3  4  1  0
  4  5  2  0
  4  6  1  0
  6  7  1  0
  7  8  1  0
  8  9  2  0
  8 10  1  0
  7  1  1  0
M  END

