
     RDKit          3D

 14 14  0  0  0  0  0  0  0  0999 V2000
   -3.7153   -0.8297   -0.7360 C   0  0  0  0  0  0  0  0  0  0  0  0
   -2.7811   -0.1450    0.2393 C   0  0  0  0  0  0  0  0  0  0  0  0
   -1.4613    0.0040   -0.3416 N   0  0  0  0  0  4  0  0  0  0  0  0
   -0.4512   -0.1503    0.4472 C   0  0  0  0  0  0  0  0  0  0  0  0
   -0.5904   -0.4526    1.8263 N   0  0  0  0  0  0  0  0  0  0  0  0
    0.8904   -0.0199   -0.0464 N   0  0  0  0  0  0  0  0  0  0  0  0
    1.3076    0.8441   -1.0110 C   0  0  0  0  0  0  0  0  0  0  0  0
    2.6627    0.6345   -1.1734 C   0  0  0  0  0  0  0  0  0  0  0  0
    3.0429   -0.3559   -0.3013 C   0  0  0  0  0  0  0  0  0  0  0  0
    4.4002   -0.9321   -0.1032 C   0  0  0  0  0  0  0  0  0  0  0  0
    5.1068   -0.2229    0.8800 O   0  0  0  0  0  0  0  0  0  0  0  0
    1.9262   -0.7200    0.3613 N   0  0  0  0  0  0  0  0  0  0  0  0
   -3.3311    1.1573    0.6499 C   0  0  0  0  0  0  0  0  0  0  0  0
   -3.7900    2.2308    0.9680 C   0  0  0  0  0  0  0  0  0  0  0  0
  1  2  1  0
  2  3  1  0
  3  4  2  3
  4  5  1  0
  4  6  1  0
  6  7  1  0
  7  8  2  0
  8  9  1  0
  9 10  1  0
 10 11  1  0
  9 12  2  0
  2 13  1  0
 13 14  3  0
 12  6  1  0
M  CHG  1   3   1
M  END

