
     RDKit          3D

 22 23  0  0  0  0  0  0  0  0999 V2000
   -2.3866   -0.0054   -0.2106 B   0  0  0  0  0  0  0  0  0  0  0  0
   -3.2883   -0.8506    0.5842 O   0  0  0  0  0  0  0  0  0  0  0  0
   -3.3283   -2.1390    0.0918 C   0  0  0  0  0  0  0  0  0  0  0  0
   -4.2731   -2.9568    0.9547 C   0  0  0  0  0  0  0  0  0  0  0  0
   -3.8522   -3.0040    2.3260 N   0  0  0  0  0  0  0  0  0  0  0  0
   -3.0040    0.6242   -1.3986 O   0  0  0  0  0  0  0  0  0  0  0  0
   -2.7523    1.9814   -1.3200 C   0  0  0  0  0  0  0  0  0  0  0  0
   -3.3207    2.7653   -2.4669 C   0  0  0  0  0  0  0  0  0  0  0  0
   -2.9632    4.1723   -2.2250 N   0  0  0  0  0  0  0  0  0  0  0  0
   -1.3215    0.6886    0.5141 O   0  0  0  0  0  0  0  0  0  0  0  0
    0.0227    0.4216    0.4584 C   0  0  0  0  0  0  0  0  0  0  0  0
    0.5461   -0.5806   -0.3253 C   0  0  0  0  0  0  0  0  0  0  0  0
    1.9176   -0.8301   -0.3629 C   0  0  0  0  0  0  0  0  0  0  0  0
    2.7788   -0.0806    0.3822 C   0  0  0  0  0  0  0  0  0  0  0  0
    2.2755    0.9285    1.1742 C   0  0  0  0  0  0  0  0  0  0  0  0
    0.8967    1.1734    1.2070 C   0  0  0  0  0  0  0  0  0  0  0  0
    4.2309   -0.3261    0.3577 C   0  0  0  0  0  0  0  0  0  0  0  0
    4.7219   -1.5814    0.1682 C   0  0  0  0  0  0  0  0  0  0  0  0
    6.0560   -1.8036    0.1457 N   0  0  0  0  0  0  0  0  0  0  0  0
    6.9203   -0.7868    0.3106 C   0  0  0  0  0  0  0  0  0  0  0  0
    6.4916    0.5245    0.5094 C   0  0  0  0  0  0  0  0  0  0  0  0
    5.1214    0.7195    0.5273 C   0  0  0  0  0  0  0  0  0  0  0  0
  1  2  1  0
  2  3  1  0
  3  4  1  0
  4  5  1  0
  1  6  1  0
  6  7  1  0
  7  8  1  0
  8  9  1  0
  1 10  1  0
 10 11  1  0
 11 12  2  0
 12 13  1  0
 13 14  2  0
 14 15  1  0
 15 16  2  0
 14 17  1  0
 17 18  2  0
 18 19  1  0
 19 20  2  0
 20 21  1  0
 21 22  2  0
 16 11  1  0
 22 17  1  0
M  END

