C1=CN=C(C(=C1Cl)CNN)F
     RDKit          3D

 11 11  0  0  0  0  0  0  0  0999 V2000
   -2.3849   -0.7980    0.2693 C   0  0  0  0  0  0  0  0  0  0  0  0
   -2.8785    0.3962    0.6806 C   0  0  0  0  0  0  0  0  0  0  0  0
   -2.0890    1.5341    0.5812 N   0  0  0  0  0  0  0  0  0  0  0  0
   -0.8566    1.4611    0.0805 C   0  0  0  0  0  0  0  0  0  0  0  0
   -0.3170    0.2568   -0.3488 C   0  0  0  0  0  0  0  0  0  0  0  0
   -1.0488   -0.8792   -0.2646 C   0  0  0  0  0  0  0  0  0  0  0  0
   -0.4636   -2.3802   -0.8863 Cl  0  0  0  0  0  0  0  0  0  0  0  0
    1.0779    0.2651   -0.9375 C   0  0  0  0  0  0  0  0  0  0  0  0
    1.8402   -0.4159    0.1130 N   0  0  0  0  0  0  0  0  0  0  0  0
    3.1650   -0.3335    0.1182 N   0  0  0  0  0  0  0  0  0  0  0  0
   -0.0107    2.5187   -0.0136 F   0  0  0  0  0  0  0  0  0  0  0  0
  1  2  2  0
  2  3  1  0
  3  4  2  0
  4  5  1  0
  5  6  2  0
  6  7  1  0
  5  8  1  0
  8  9  1  0
  9 10  1  0
  4 11  1  0
  6  1  1  0
M  END

