
     RDKit          3D

 17 17  0  0  0  0  0  0  0  0999 V2000
   -2.1587   -1.3672   -1.1661 C   0  0  0  0  0  0  0  0  0  0  0  0
   -1.6402   -0.2637   -0.2210 C   0  0  0  0  0  0  0  0  0  0  0  0
   -0.2621   -0.2354   -0.2210 N   0  0  0  0  0  0  0  0  0  0  0  0
    0.3746   -1.4069    0.2525 C   0  0  0  0  0  0  0  0  0  0  0  0
    1.6658   -1.7578   -0.4593 C   0  0  0  0  0  0  0  0  0  0  0  0
    2.7617   -1.0491   -0.0520 O   0  0  0  0  0  0  0  0  0  0  0  0
    2.8778   -0.9625    1.3329 C   0  0  0  0  0  0  0  0  0  0  0  0
    2.1746    0.1811    1.8516 O   0  0  0  0  0  0  0  0  0  0  0  0
    1.2306    1.0193    1.2182 C   0  0  0  0  0  0  0  0  0  0  0  0
    0.9393    2.0237    1.8761 O   0  0  0  0  0  0  0  0  0  0  0  0
    0.5258    0.8956   -0.1124 C   0  0  0  0  0  0  0  0  0  0  0  0
    0.0521    2.2267   -0.5202 C   0  0  0  0  0  0  0  0  0  0  0  0
   -0.2820    2.2497   -1.9850 C   0  0  0  0  0  0  0  0  0  0  0  0
   -0.7467    3.5196   -2.3863 O   0  0  0  0  0  0  0  0  0  0  0  0
   -2.2301   -0.5798    1.1012 C   0  0  0  0  0  0  0  0  0  0  0  0
   -1.4690   -0.8070    2.2615 N   0  0  0  0  0  0  0  0  0  0  0  0
   -3.4948   -0.6645    1.2615 O   0  0  0  0  0  0  0  0  0  0  0  0
  1  2  1  0
  2  3  1  0
  3  4  1  0
  4  5  1  0
  5  6  1  0
  6  7  1  0
  7  8  1  0
  8  9  1  0
  9 10  2  0
  9 11  1  0
 11 12  1  0
 12 13  1  0
 13 14  1  0
  2 15  1  0
 15 16  1  0
 15 17  2  0
 11  3  1  0
M  END

