
     RDKit          3D

 14 13  0  0  0  0  0  0  0  0999 V2000
    4.1318    0.5305    0.1381 C   0  0  0  0  0  0  0  0  0  0  0  0
    2.8562    0.6080   -0.6878 C   0  0  0  0  0  0  0  0  0  0  0  0
    2.9314   -0.2433   -1.7944 O   0  0  0  0  0  0  0  0  0  0  0  0
    1.7165    0.0782    0.1875 C   0  0  0  0  0  0  0  0  0  0  0  0
    0.5680    0.1158   -0.5701 O   0  0  0  0  0  0  0  0  0  0  0  0
   -0.5625   -0.3375    0.0918 C   0  0  0  0  0  0  0  0  0  0  0  0
   -1.7143   -0.2211   -0.8904 C   0  0  0  0  0  0  0  0  0  0  0  0
   -3.0204   -0.6926   -0.2706 C   0  0  0  0  0  0  0  0  0  0  0  0
   -3.3881    0.3309    1.1867 S   0  0  0  0  0  0  0  0  0  0  0  0
   -3.7192    1.9937    0.7154 N   0  0  0  0  0  0  0  0  0  0  0  0
   -2.8877   -2.0940    0.1273 C   0  0  0  0  0  0  0  0  0  0  0  0
   -2.7966   -3.2548    0.4664 C   0  0  0  0  0  0  0  0  0  0  0  0
    2.5496    1.9653   -1.0687 C   0  0  0  0  0  0  0  0  0  0  0  0
    2.2965    3.0482   -1.3610 N   0  0  0  0  0  0  0  0  0  0  0  0
  1  2  1  0
  2  3  1  0
  2  4  1  0
  4  5  1  0
  5  6  1  0
  6  7  1  0
  7  8  1  0
  8  9  1  0
  9 10  1  0
  8 11  1  0
 11 12  3  0
  2 13  1  0
 13 14  3  0
M  END

