CC(=O)C1=C(C(=NC=C1)CCCC2=CC=CC=C2)NC(=O)C=C
     RDKit          3D

 23 24  0  0  0  0  0  0  0  0999 V2000
    4.2135    3.4231    0.9450 C   0  0  0  0  0  0  0  0  0  0  0  0
    3.7095    2.0573    0.7350 C   0  0  0  0  0  0  0  0  0  0  0  0
    4.4669    1.0823    0.8735 O   0  0  0  0  0  0  0  0  0  0  0  0
    2.3252    1.8481    0.3645 C   0  0  0  0  0  0  0  0  0  0  0  0
    1.8614    0.5655    0.1663 C   0  0  0  0  0  0  0  0  0  0  0  0
    0.5268    0.4125   -0.1912 C   0  0  0  0  0  0  0  0  0  0  0  0
   -0.2779    1.4757   -0.3369 N   0  0  0  0  0  0  0  0  0  0  0  0
    0.1569    2.7296   -0.1481 C   0  0  0  0  0  0  0  0  0  0  0  0
    1.4706    2.9272    0.2068 C   0  0  0  0  0  0  0  0  0  0  0  0
    0.0614   -0.9608   -0.4240 C   0  0  0  0  0  0  0  0  0  0  0  0
   -1.4036   -1.0019   -0.6870 C   0  0  0  0  0  0  0  0  0  0  0  0
   -2.2359   -0.5304    0.4500 C   0  0  0  0  0  0  0  0  0  0  0  0
   -3.6956   -0.5932    0.1456 C   0  0  0  0  0  0  0  0  0  0  0  0
   -4.3785   -1.7646    0.4210 C   0  0  0  0  0  0  0  0  0  0  0  0
   -5.7257   -1.9158    0.1708 C   0  0  0  0  0  0  0  0  0  0  0  0
   -6.4181   -0.8686   -0.3710 C   0  0  0  0  0  0  0  0  0  0  0  0
   -5.7514    0.3283   -0.6595 C   0  0  0  0  0  0  0  0  0  0  0  0
   -4.4044    0.4561   -0.4007 C   0  0  0  0  0  0  0  0  0  0  0  0
    2.6480   -0.6055    0.3008 N   0  0  0  0  0  0  0  0  0  0  0  0
    3.3634   -1.1966   -0.7508 C   0  0  0  0  0  0  0  0  0  0  0  0
    3.3728   -0.7319   -1.9287 O   0  0  0  0  0  0  0  0  0  0  0  0
    4.1388   -2.4029   -0.4974 C   0  0  0  0  0  0  0  0  0  0  0  0
    4.8311   -3.0061   -1.4380 C   0  0  0  0  0  0  0  0  0  0  0  0
  1  2  1  0
  2  3  2  0
  2  4  1  0
  4  5  2  0
  5  6  1  0
  6  7  2  0
  7  8  1  0
  8  9  2  0
  6 10  1  0
 10 11  1  0
 11 12  1  0
 12 13  1  0
 13 14  2  0
 14 15  1  0
 15 16  2  0
 16 17  1  0
 17 18  2  0
  5 19  1  0
 19 20  1  0
 20 21  2  0
 20 22  1  0
 22 23  2  0
  9  4  1  0
 18 13  1  0
M  END

