
     RDKit          3D

 14 14  0  0  0  0  0  0  0  0999 V2000
   -3.2543   -0.2019   -0.3093 C   0  0  0  0  0  0  0  0  0  0  0  0
   -2.6296    0.9926    0.3368 C   0  0  0  0  0  0  0  0  0  0  0  0
   -1.2613    1.3296   -0.1346 C   0  0  0  0  0  0  0  0  0  0  0  0
   -0.2336    0.3105    0.0714 C   0  0  0  0  0  0  0  0  0  0  0  0
   -0.4477   -0.8919    0.7006 C   0  0  0  0  0  0  0  0  0  0  0  0
    0.5853   -1.8035    0.8462 C   0  0  0  0  0  0  0  0  0  0  0  0
    0.4027   -2.9207    1.4261 O   0  0  0  0  0  0  0  0  0  0  0  0
    1.8037   -1.5042    0.3666 N   0  0  0  0  0  0  0  0  0  0  0  0
    2.0176   -0.3458   -0.2415 C   0  0  0  0  0  0  0  0  0  0  0  0
    1.0162    0.5289   -0.3784 N   0  0  0  0  0  0  0  0  0  0  0  0
    3.5763    0.1246   -0.8963 S   0  0  0  0  0  6  0  0  0  0  0  0
    4.5972   -0.9391   -0.6933 O   0  0  0  0  0  0  0  0  0  0  0  0
    3.3590    0.4392   -2.3508 O   0  0  0  0  0  0  0  0  0  0  0  0
    4.0371    1.5378   -0.0993 O   0  0  0  0  0  0  0  0  0  0  0  0
  1  2  1  0
  2  3  1  0
  3  4  1  0
  4  5  2  0
  5  6  1  0
  6  7  2  0
  6  8  1  0
  8  9  1  0
  9 10  2  0
  9 11  1  0
 11 12  2  0
 11 13  2  0
 11 14  1  0
 10  4  1  0
M  END

