
     RDKit          3D

 16 17  0  0  0  0  0  0  0  0999 V2000
    1.5895   -1.2788   -1.8128 C   0  0  0  0  0  0  0  0  0  0  0  0
    1.1653   -0.2769   -0.7925 C   0  0  0  0  0  0  0  0  0  0  0  0
    0.3961   -0.8323    0.3007 N   0  0  0  0  0  4  0  0  0  0  0  0
   -0.5941   -1.7283   -0.2505 C   0  0  0  0  0  0  0  0  0  0  0  0
   -1.8646   -0.9481   -0.3007 C   0  0  0  0  0  0  0  0  0  0  0  0
   -3.0048   -0.7605   -0.8902 C   0  0  0  0  0  0  0  0  0  0  0  0
   -3.7730    0.3650   -0.2304 C   0  0  0  0  0  0  0  0  0  0  0  0
   -2.5674    1.1777    0.2979 C   0  0  0  0  0  0  0  0  0  0  0  0
   -1.7643    0.0250    0.8368 C   0  0  0  0  0  0  0  0  0  0  0  0
   -0.2887    0.2719    0.9423 C   0  0  0  0  0  0  0  0  0  0  0  0
    0.0691    0.2206    2.4225 C   0  0  0  0  0  0  0  0  0  0  0  0
    2.3551    0.4524   -0.2850 C   0  0  0  0  0  0  0  0  0  0  0  0
    2.6404    0.3945    0.9710 N   0  0  0  0  0  0  0  0  0  0  0  0
    3.7340    1.0557    1.4813 O   0  0  0  0  0  0  0  0  0  0  0  0
    3.1546    1.2018   -1.2119 C   0  0  0  0  0  0  0  0  0  0  0  0
    3.8170    1.8514   -1.9952 C   0  0  0  0  0  0  0  0  0  0  0  0
  1  2  1  0
  2  3  1  0
  3  4  1  0
  4  5  1  0
  5  6  2  0
  6  7  1  0
  7  8  1  0
  8  9  1  0
  9 10  1  0
 10 11  1  0
  2 12  1  0
 12 13  2  3
 13 14  1  0
 12 15  1  0
 15 16  3  0
 10  3  1  0
  9  5  1  0
M  CHG  1   3   1
M  END

