
     RDKit          3D

 11 10  0  0  0  0  0  0  0  0999 V2000
   -1.3402    1.5486    1.5136 C   0  0  0  0  0  0  0  0  0  0  0  0
   -1.1475    0.9930    0.1311 C   0  0  0  0  0  0  0  0  0  0  0  0
   -2.2960    1.2123   -0.6183 O   0  0  0  0  0  0  0  0  0  0  0  0
   -0.7786   -0.4615    0.1169 C   0  0  0  0  0  0  0  0  0  0  0  0
   -1.8997   -1.2897    0.7955 C   0  0  0  0  0  0  0  0  0  0  0  0
   -0.7357   -0.9617   -1.2907 C   0  0  0  0  0  0  0  0  0  0  0  0
    0.4940   -0.7229    0.8517 C   0  0  0  0  0  0  0  0  0  0  0  0
    1.6233   -0.1112    0.4724 O   0  0  0  0  0  0  0  0  0  0  0  0
    2.1541   -0.2872   -0.7642 C   0  0  0  0  0  0  0  0  0  0  0  0
    3.4655    0.4904   -0.9301 C   0  0  0  0  0  0  0  0  0  0  0  0
    4.4562    0.0622    0.0312 N   0  0  0  0  0  1  0  0  0  0  0  0
  1  2  1  0
  2  3  1  0
  2  4  1  0
  4  5  1  0
  4  6  1  0
  4  7  1  0
  7  8  1  0
  8  9  1  0
  9 10  1  0
 10 11  1  0
M  RAD  1  11   3
M  END

