
     RDKit          3D

 12 12  0  0  0  0  0  0  0  0999 V2000
   -3.3010   -0.7826    0.0156 C   0  0  0  0  0  0  0  0  0  0  0  0
   -1.9343   -0.2828    0.4210 C   0  0  0  0  0  0  0  0  0  0  0  0
   -1.3290    0.2457   -0.7166 O   0  0  0  0  0  0  0  0  0  0  0  0
   -0.0894    0.7194   -0.4364 N   0  0  0  0  0  0  0  0  0  0  0  0
    0.1091    2.0814   -0.0767 C   0  0  0  0  0  0  0  0  0  0  0  0
    1.3086    2.5746    0.2030 C   0  0  0  0  0  0  0  0  0  0  0  0
    2.5084    1.7155    0.1516 C   0  0  0  0  0  0  0  0  0  0  0  0
    2.2350    0.3610   -0.2162 N   0  0  0  0  0  0  0  0  0  0  0  0
    1.0683   -0.1069   -0.4853 C   0  0  0  0  0  0  0  0  0  0  0  0
    0.8668   -1.5155   -0.8569 C   0  0  0  0  0  0  0  0  0  0  0  0
    1.9091   -2.2655   -0.9024 N   0  0  0  0  0  0  0  0  0  0  0  0
    1.7346   -3.5812   -1.2476 O   0  0  0  0  0  0  0  0  0  0  0  0
  1  2  1  0
  2  3  1  0
  3  4  1  0
  4  5  1  0
  5  6  2  0
  6  7  1  0
  7  8  1  0
  8  9  2  0
  9 10  1  0
 10 11  2  3
 11 12  1  0
  9  4  1  0
M  END

