COCCCNC(=S)N/N=C\C1=CC=CN1
     RDKit          3D

 16 16  0  0  0  0  0  0  0  0999 V2000
   -4.5599   -1.3744   -0.2570 C   0  0  0  0  0  0  0  0  0  0  0  0
   -3.8491   -0.3726   -0.9093 O   0  0  0  0  0  0  0  0  0  0  0  0
   -3.4256    0.5985    0.0081 C   0  0  0  0  0  0  0  0  0  0  0  0
   -2.6554    1.6797   -0.7307 C   0  0  0  0  0  0  0  0  0  0  0  0
   -1.4743    1.0231   -1.3857 C   0  0  0  0  0  0  0  0  0  0  0  0
   -0.6293    0.4164   -0.3931 N   0  0  0  0  0  0  0  0  0  0  0  0
    0.1348    1.1652    0.5387 C   0  0  0  0  0  0  0  0  0  0  0  0
    0.0626    2.7908    0.4729 S   0  0  0  0  0  0  0  0  0  0  0  0
    0.9662    0.5494    1.5230 N   0  0  0  0  0  0  0  0  0  0  0  0
    1.0101   -0.8224    1.5467 N   0  0  0  0  0  0  0  0  0  0  0  0
    1.9591   -1.5367    1.1069 C   0  0  0  0  0  0  0  0  0  0  0  0
    3.1362   -0.9637    0.5119 C   0  0  0  0  0  0  0  0  0  0  0  0
    4.1999   -1.7524    0.0618 C   0  0  0  0  0  0  0  0  0  0  0  0
    5.1854   -0.9556   -0.4676 C   0  0  0  0  0  0  0  0  0  0  0  0
    4.7358    0.3370   -0.3490 C   0  0  0  0  0  0  0  0  0  0  0  0
    3.5072    0.2836    0.2420 N   0  0  0  0  0  0  0  0  0  0  0  0
  1  2  1  0
  2  3  1  0
  3  4  1  0
  4  5  1  0
  5  6  1  0
  6  7  1  0
  7  8  2  0
  7  9  1  0
  9 10  1  0
 10 11  2  0
 11 12  1  0
 12 13  2  0
 13 14  1  0
 14 15  2  0
 15 16  1  0
 16 12  1  0
M  END

