
     RDKit          3D

 13 14  0  0  0  0  0  0  0  0999 V2000
   -2.3873   -0.0681    1.5224 C   0  0  0  0  0  0  0  0  0  0  0  0
   -1.7880   -0.7306    0.2808 C   0  0  0  0  0  0  0  0  0  0  0  0
   -2.5770   -0.3755   -0.9314 C   0  0  0  0  0  0  0  0  0  0  0  0
   -0.3666   -0.2997    0.1876 C   0  0  0  0  0  0  0  0  0  0  0  0
    0.3473   -0.7372    1.4168 O   0  0  0  0  0  0  0  0  0  0  0  0
    0.7937   -1.0132    0.0168 C   0  0  0  0  0  0  0  0  0  0  0  0
    1.8754   -0.0456   -0.3076 C   0  0  0  0  0  0  0  0  0  0  0  0
    3.2839   -0.3750   -0.4921 C   0  0  0  0  0  0  0  0  0  0  0  0
    3.6909   -1.6281   -0.3721 C   0  0  0  0  0  0  0  0  0  0  0  0
    1.3520    1.1673   -0.4022 C   0  0  0  0  0  0  0  0  0  0  0  0
   -0.0850    1.1281   -0.1578 C   0  0  0  0  0  0  0  0  0  0  0  0
   -0.8741    2.1140   -0.2347 N   0  0  0  0  0  0  0  0  0  0  0  0
   -0.4022    3.3560   -0.5726 O   0  0  0  0  0  0  0  0  0  0  0  0
  1  2  1  0
  2  3  1  0
  2  4  1  0
  4  5  1  0
  5  6  1  0
  6  7  1  0
  7  8  1  0
  8  9  2  0
  7 10  2  0
 10 11  1  0
 11 12  2  3
 12 13  1  0
  6  4  1  0
 11  4  1  0
M  END

