
     RDKit          3D

 15 15  0  0  0  0  0  0  0  0999 V2000
   -3.7871    1.2727   -0.1250 C   0  0  0  0  0  0  0  0  0  0  0  0
   -3.4610    0.1627   -1.0884 C   0  0  0  0  0  0  0  0  0  0  0  0
   -2.6474    0.6724   -2.1733 N   0  0  0  0  0  4  0  0  0  0  0  0
   -2.7435   -0.9950   -0.4172 C   0  0  0  0  0  0  0  0  0  0  0  0
   -1.5205   -0.5725    0.0918 O   0  0  0  0  0  0  0  0  0  0  0  0
   -0.9037   -1.6751    0.6964 C   0  0  0  0  0  0  0  0  0  0  0  0
    0.4391   -1.2790    1.2756 C   0  0  0  0  0  0  0  0  0  0  0  0
    1.3309   -0.7738    0.2416 N   0  0  0  0  0  0  0  0  0  0  0  0
    2.5748   -0.4182    0.8762 C   0  0  0  0  0  0  0  0  0  0  0  0
    2.3494    0.6804    1.8665 C   0  0  0  0  0  0  0  0  0  0  0  0
    3.5865    0.0522   -0.1216 C   0  0  0  0  0  0  0  0  0  0  0  0
    4.3653    1.1183   -0.0117 N   0  0  0  0  0  0  0  0  0  0  0  0
    5.1971    1.3929   -0.9706 C   0  0  0  0  0  0  0  0  0  0  0  0
    5.2244    0.5780   -2.0285 N   0  0  0  0  0  0  0  0  0  0  0  0
    4.0582   -0.5725   -1.6370 S   0  0  0  0  0  0  0  0  0  0  0  0
  1  2  1  0
  2  3  1  0
  2  4  1  0
  4  5  1  0
  5  6  1  0
  6  7  1  0
  7  8  1  0
  8  9  1  0
  9 10  1  0
  9 11  1  0
 11 12  2  0
 12 13  1  0
 13 14  2  0
 14 15  1  0
 15 11  1  0
M  CHG  1   3   1
M  END

