
     RDKit          3D

 16 17  0  0  0  0  0  0  0  0999 V2000
    5.5126   -0.1961    0.4067 C   0  0  0  0  0  0  0  0  0  0  0  0
    4.2171    0.1909    0.0231 O   0  0  0  0  0  0  0  0  0  0  0  0
    3.0553   -0.4188    0.4610 C   0  0  0  0  0  0  0  0  0  0  0  0
    3.1520   -1.3710    1.2444 O   0  0  0  0  0  0  0  0  0  0  0  0
    1.7576    0.0896   -0.0219 C   0  0  0  0  0  0  0  0  0  0  0  0
    1.5836    1.1428   -0.8916 C   0  0  0  0  0  0  0  0  0  0  0  0
    0.2974    1.2699   -1.0624 O   0  0  0  0  0  0  0  0  0  0  0  0
   -0.3616    0.3755   -0.3658 C   0  0  0  0  0  0  0  0  0  0  0  0
    0.5350   -0.3757    0.2948 N   0  0  0  0  0  0  0  0  0  0  0  0
   -1.8222    0.2350   -0.3269 C   0  0  0  0  0  0  0  0  0  0  0  0
   -2.6507    1.0638   -1.0474 C   0  0  0  0  0  0  0  0  0  0  0  0
   -4.0224    0.9563   -1.0308 C   0  0  0  0  0  0  0  0  0  0  0  0
   -4.6186   -0.0211   -0.2630 C   0  0  0  0  0  0  0  0  0  0  0  0
   -3.7950   -0.8580    0.4638 C   0  0  0  0  0  0  0  0  0  0  0  0
   -2.4181   -0.7432    0.4415 C   0  0  0  0  0  0  0  0  0  0  0  0
   -1.5878   -1.5927    1.1790 O   0  0  0  0  0  0  0  0  0  0  0  0
  1  2  1  0
  2  3  1  0
  3  4  2  0
  3  5  1  0
  5  6  2  0
  6  7  1  0
  7  8  1  0
  8  9  2  0
  8 10  1  0
 10 11  2  0
 11 12  1  0
 12 13  2  0
 13 14  1  0
 14 15  2  0
 15 16  1  0
  9  5  1  0
 15 10  1  0
M  END

