
     RDKit          3D

 11 11  0  0  0  0  0  0  0  0999 V2000
   -2.4801    0.5580   -0.3011 C   0  0  0  0  0  0  0  0  0  0  0  0
   -1.0936    0.1689   -0.1042 N   0  0  0  0  0  0  0  0  0  0  0  0
   -0.1215    1.0494   -0.3717 C   0  0  0  0  0  0  0  0  0  0  0  0
   -0.4030    2.2028   -0.7894 O   0  0  0  0  0  0  0  0  0  0  0  0
    1.2071    0.6651   -0.1791 C   0  0  0  0  0  0  0  0  0  0  0  0
    1.5298   -0.5961    0.2783 C   0  0  0  0  0  0  0  0  0  0  0  0
    0.5126   -1.4399    0.5309 N   0  0  0  0  0  0  0  0  0  0  0  0
   -0.7769   -1.0575    0.3407 C   0  0  0  0  0  0  0  0  0  0  0  0
   -2.1045   -2.1540    0.6687 Cl  0  0  0  0  0  0  0  0  0  0  0  0
    2.8944   -0.9603    0.4654 N   0  0  0  0  0  0  0  0  0  0  0  0
    2.6284    1.8754   -0.5431 Br  0  0  0  0  0  0  0  0  0  0  0  0
  1  2  1  0
  2  3  1  0
  3  4  2  0
  3  5  1  0
  5  6  2  0
  6  7  1  0
  7  8  2  0
  8  9  1  0
  6 10  1  0
  5 11  1  0
  8  2  1  0
M  END

