
     RDKit          3D

 13 12  0  0  0  0  0  0  0  0999 V2000
   -3.1061   -1.6855   -0.8543 C   0  0  0  0  0  0  0  0  0  0  0  0
   -2.3447   -0.4199   -0.4428 C   0  0  0  0  0  0  0  0  0  0  0  0
   -2.0664    0.1936   -1.6944 O   0  0  0  0  0  0  0  0  0  0  0  0
   -1.0027   -0.7329    0.1200 C   0  0  0  0  0  0  0  0  0  0  0  0
   -0.6016   -2.0066   -0.0248 C   0  0  0  0  0  0  0  0  0  0  0  0
   -0.1650    0.2847    0.6946 C   0  0  0  0  0  0  0  0  0  0  0  0
    1.2379   -0.2201    1.0638 C   0  0  0  0  0  0  0  0  0  0  0  0
    2.0641   -0.4300   -0.1723 C   0  0  0  0  0  0  0  0  0  0  0  0
    3.3180   -0.9152    0.2736 O   0  0  0  0  0  0  0  0  0  0  0  0
    4.1063   -1.1189   -0.8576 C   0  0  0  0  0  0  0  0  0  0  0  0
   -0.3991    1.5465    0.9514 C   0  0  0  0  0  0  0  0  0  0  0  0
    0.7125    2.3913    1.5708 C   0  0  0  0  0  0  0  0  0  0  0  0
   -1.6545    2.2789    0.7527 C   0  0  0  0  0  0  0  0  0  0  0  0
  1  2  1  0
  2  3  1  0
  2  4  1  0
  4  5  2  0
  4  6  1  0
  6  7  1  0
  7  8  1  0
  8  9  1  0
  9 10  1  0
  6 11  2  3
 11 12  1  0
 11 13  1  0
M  END

