CC(O)C(C[N])NCC([N])C#C
     RDKit          3D

 12 11  0  0  0  0  0  0  0  0999 V2000
   -3.0271    0.1193   -0.5679 C   0  0  0  0  0  0  0  0  0  0  0  0
   -1.6508   -0.3669   -0.2036 C   0  0  0  0  0  0  0  0  0  0  0  0
   -1.8014   -0.9828    1.0603 O   0  0  0  0  0  0  0  0  0  0  0  0
   -0.6027    0.6521   -0.1456 C   0  0  0  0  0  0  0  0  0  0  0  0
   -0.8573    1.8237    0.7512 C   0  0  0  0  0  0  0  0  0  0  0  0
   -2.0078    2.6052    0.4467 N   0  0  0  0  0  1  0  0  0  0  0  0
    0.6659    0.0975    0.2306 N   0  0  0  0  0  0  0  0  0  0  0  0
    1.2068   -0.8497   -0.6821 C   0  0  0  0  0  0  0  0  0  0  0  0
    2.5486   -1.3661   -0.1762 C   0  0  0  0  0  0  0  0  0  0  0  0
    2.3292   -2.0020    1.1238 N   0  0  0  0  0  1  0  0  0  0  0  0
    3.4939   -0.2567   -0.0427 C   0  0  0  0  0  0  0  0  0  0  0  0
    4.2731    0.6358    0.0759 C   0  0  0  0  0  0  0  0  0  0  0  0
  1  2  1  0
  2  3  1  0
  2  4  1  0
  4  5  1  0
  5  6  1  0
  4  7  1  0
  7  8  1  0
  8  9  1  0
  9 10  1  0
  9 11  1  0
 11 12  3  0
M  RAD  2   6   3  10   3
M  END

