
     RDKit          3D

 16 17  0  0  0  0  0  0  0  0999 V2000
   -2.4230   -0.9572   -0.2545 C   0  0  0  0  0  0  0  0  0  0  0  0
   -2.2298    0.4532    0.2513 C   0  0  0  0  0  0  0  0  0  0  0  0
   -3.3980    1.3172   -0.1065 C   0  0  0  0  0  0  0  0  0  0  0  0
   -3.2770    2.3450   -0.8197 O   0  0  0  0  0  0  0  0  0  0  0  0
   -4.6689    0.9916    0.3541 O   0  0  0  0  0  0  0  0  0  0  0  0
   -1.0494    0.9996   -0.3404 N   0  0  0  0  0  0  0  0  0  0  0  0
    0.2596    0.4885   -0.1202 C   0  0  0  0  0  0  0  0  0  0  0  0
    1.3246    1.0436   -0.7091 N   0  0  0  0  0  0  0  0  0  0  0  0
    2.5836    0.5591   -0.4939 C   0  0  0  0  0  0  0  0  0  0  0  0
    2.7352   -0.5254    0.3518 C   0  0  0  0  0  0  0  0  0  0  0  0
    1.6402   -1.0930    0.9549 C   0  0  0  0  0  0  0  0  0  0  0  0
    1.7724   -2.0757    1.7219 O   0  0  0  0  0  0  0  0  0  0  0  0
    0.4261   -0.5551    0.6910 N   0  0  0  0  0  0  0  0  0  0  0  0
    4.0343   -0.8174    0.4077 N   0  0  0  0  0  0  0  0  0  0  0  0
    4.7152    0.0423   -0.3722 C   0  0  0  0  0  0  0  0  0  0  0  0
    3.8081    0.8735   -0.9123 N   0  0  0  0  0  0  0  0  0  0  0  0
  1  2  1  0
  2  3  1  0
  3  4  2  0
  3  5  1  0
  2  6  1  0
  6  7  1  0
  7  8  2  0
  8  9  1  0
  9 10  2  0
 10 11  1  0
 11 12  2  0
 11 13  1  0
 10 14  1  0
 14 15  1  0
 15 16  2  0
 13  7  1  0
 16  9  1  0
M  END

