C1C(=O)NC(=NO1)C2=NON=C2N
     RDKit          3D

 13 14  0  0  0  0  0  0  0  0999 V2000
   -2.9489   -0.2832   -0.1204 C   0  0  0  0  0  0  0  0  0  0  0  0
   -1.8523   -1.2047   -0.5207 C   0  0  0  0  0  0  0  0  0  0  0  0
   -2.0672   -2.4188   -0.7787 O   0  0  0  0  0  0  0  0  0  0  0  0
   -0.5379   -0.6349   -0.5965 N   0  0  0  0  0  0  0  0  0  0  0  0
   -0.2201    0.6212   -0.0296 C   0  0  0  0  0  0  0  0  0  0  0  0
   -1.1650    1.2573    0.5722 N   0  0  0  0  0  0  0  0  0  0  0  0
   -2.4501    0.7697    0.6826 O   0  0  0  0  0  0  0  0  0  0  0  0
    1.1262    1.1812   -0.1196 C   0  0  0  0  0  0  0  0  0  0  0  0
    1.5033    2.4633   -0.1603 N   0  0  0  0  0  0  0  0  0  0  0  0
    2.7830    2.5221   -0.2393 O   0  0  0  0  0  0  0  0  0  0  0  0
    3.2619    1.3235   -0.2520 N   0  0  0  0  0  0  0  0  0  0  0  0
    2.2736    0.4191   -0.1791 C   0  0  0  0  0  0  0  0  0  0  0  0
    2.3800   -0.9997   -0.1660 N   0  0  0  0  0  0  0  0  0  0  0  0
  1  2  1  0
  2  3  2  0
  2  4  1  0
  4  5  1  0
  5  6  2  0
  6  7  1  0
  5  8  1  0
  8  9  2  0
  9 10  1  0
 10 11  1  0
 11 12  2  0
 12 13  1  0
  7  1  1  0
 12  8  1  0
M  END

