
     RDKit          3D

 20 21  0  0  0  0  0  0  0  0999 V2000
   -1.4896   -0.4320    1.5605 C   0  0  0  0  0  0  0  0  0  0  0  0
   -1.9460    0.4550    0.5338 N   0  0  0  0  0  0  0  0  0  0  0  0
   -2.3140   -0.1825   -0.6952 C   0  0  0  0  0  0  0  0  0  0  0  0
   -3.5575   -1.0281   -0.5617 C   0  0  0  0  0  0  0  0  0  0  0  0
   -4.7536   -0.2092   -0.1275 C   0  0  0  0  0  0  0  0  0  0  0  0
   -5.8346   -1.0688   -0.0353 F   0  0  0  0  0  0  0  0  0  0  0  0
   -4.5594    0.3864    1.0973 F   0  0  0  0  0  0  0  0  0  0  0  0
   -5.0801    0.7252   -1.1050 F   0  0  0  0  0  0  0  0  0  0  0  0
   -0.9811    1.4853    0.3113 C   0  0  0  0  0  0  0  0  0  0  0  0
    0.3461    0.9828   -0.1104 C   0  0  0  0  0  0  0  0  0  0  0  0
    1.2977    0.7861    0.8177 N   0  0  0  0  0  0  0  0  0  0  0  0
    2.5327    0.3324    0.5368 C   0  0  0  0  0  0  0  0  0  0  0  0
    3.4990    0.1384    1.5168 C   0  0  0  0  0  0  0  0  0  0  0  0
    4.7667   -0.3276    1.2209 C   0  0  0  0  0  0  0  0  0  0  0  0
    5.0604   -0.6026   -0.0950 C   0  0  0  0  0  0  0  0  0  0  0  0
    4.0990   -0.4119   -1.0865 C   0  0  0  0  0  0  0  0  0  0  0  0
    2.8384    0.0537   -0.7772 C   0  0  0  0  0  0  0  0  0  0  0  0
    1.8698    0.2513   -1.7391 C   0  0  0  0  0  0  0  0  0  0  0  0
    2.0965    0.0124   -2.9527 O   0  0  0  0  0  0  0  0  0  0  0  0
    0.6520    0.7085   -1.3896 N   0  0  0  0  0  0  0  0  0  0  0  0
  1  2  1  0
  2  3  1  0
  3  4  1  0
  4  5  1  0
  5  6  1  0
  5  7  1  0
  5  8  1  0
  2  9  1  0
  9 10  1  0
 10 11  2  0
 11 12  1  0
 12 13  2  0
 13 14  1  0
 14 15  2  0
 15 16  1  0
 16 17  2  0
 17 18  1  0
 18 19  2  0
 18 20  1  0
 20 10  1  0
 17 12  1  0
M  END

