O=CNC1=CCCC1
     RDKit          3D

  8  8  0  0  0  0  0  0  0  0999 V2000
    2.3125    0.5326   -1.5750 O   0  0  0  0  0  0  0  0  0  0  0  0
    2.6126   -0.4265   -0.8351 C   0  0  0  0  0  0  0  0  0  0  0  0
    1.6530   -0.9550    0.0405 N   0  0  0  0  0  0  0  0  0  0  0  0
    0.3346   -0.3953    0.0843 C   0  0  0  0  0  0  0  0  0  0  0  0
   -0.7307   -1.1113   -0.1872 C   0  0  0  0  0  0  0  0  0  0  0  0
   -1.9316   -0.2665   -0.0587 C   0  0  0  0  0  0  0  0  0  0  0  0
   -1.3832    1.1387   -0.1530 C   0  0  0  0  0  0  0  0  0  0  0  0
    0.0151    1.0179    0.4257 C   0  0  0  0  0  0  0  0  0  0  0  0
  1  2  2  0
  2  3  1  0
  3  4  1  0
  4  5  2  0
  5  6  1  0
  6  7  1  0
  7  8  1  0
  8  4  1  0
M  END

