
     RDKit          3D

 14 13  0  0  0  0  0  0  0  0999 V2000
    3.0302    0.0196    0.1102 C   0  0  0  0  0  0  0  0  0  0  0  0
    1.6715    0.6237   -0.1928 C   0  0  0  0  0  0  0  0  0  0  0  0
    1.9099    2.0709   -0.2736 N   0  0  0  0  0  4  0  0  0  0  0  0
    0.7287    0.4098    0.9548 C   0  0  0  0  0  0  0  0  0  0  0  0
    0.3681   -0.8716    1.2030 O   0  0  0  0  0  0  0  0  0  0  0  0
   -0.2781   -1.6102    0.2825 C   0  0  0  0  0  0  0  0  0  0  0  0
   -1.6173   -1.1775   -0.1894 C   0  0  0  0  0  0  0  0  0  0  0  0
   -2.1079   -2.1592   -1.0969 O   0  0  0  0  0  0  0  0  0  0  0  0
   -2.6109   -0.9810    0.9318 C   0  0  0  0  0  0  0  0  0  0  0  0
   -2.8245   -2.1436    1.6293 O   0  0  0  0  0  0  0  0  0  0  0  0
   -1.4855    0.0658   -0.9664 C   0  0  0  0  0  0  0  0  0  0  0  0
   -1.3941    1.0900   -1.6393 C   0  0  0  0  0  0  0  0  0  0  0  0
   -1.2852    2.2792   -2.3943 C   0  0  0  0  0  0  0  0  0  0  0  0
   -1.1786    3.2564   -3.0143 N   0  0  0  0  0  0  0  0  0  0  0  0
  1  2  1  0
  2  3  1  0
  2  4  1  0
  4  5  1  0
  5  6  1  0
  6  7  1  0
  7  8  1  0
  7  9  1  0
  9 10  1  0
  7 11  1  0
 11 12  3  0
 12 13  1  0
 13 14  3  0
M  CHG  1   3   1
M  END

