CS(=O)(=O)C1=CC=C(C=C1)C(=O)ON2C(=O)CCC2=O
     RDKit          3D

 20 21  0  0  0  0  0  0  0  0999 V2000
   -5.6510   -0.0379    1.0421 C   0  0  0  0  0  0  0  0  0  0  0  0
   -4.8878    0.5255   -0.4709 S   0  0  0  0  0  6  0  0  0  0  0  0
   -5.5347   -0.1825   -1.6379 O   0  0  0  0  0  0  0  0  0  0  0  0
   -5.1482    2.0207   -0.5854 O   0  0  0  0  0  0  0  0  0  0  0  0
   -3.1736    0.2108   -0.3930 C   0  0  0  0  0  0  0  0  0  0  0  0
   -2.2906    1.1817   -0.0040 C   0  0  0  0  0  0  0  0  0  0  0  0
   -0.9158    0.8998    0.0663 C   0  0  0  0  0  0  0  0  0  0  0  0
   -0.4626   -0.3505   -0.2562 C   0  0  0  0  0  0  0  0  0  0  0  0
   -1.3588   -1.3130   -0.6444 C   0  0  0  0  0  0  0  0  0  0  0  0
   -2.7085   -1.0412   -0.7150 C   0  0  0  0  0  0  0  0  0  0  0  0
    0.9433   -0.6599   -0.1828 C   0  0  0  0  0  0  0  0  0  0  0  0
    1.4192   -1.7973   -0.4677 O   0  0  0  0  0  0  0  0  0  0  0  0
    1.8348    0.3188    0.2163 O   0  0  0  0  0  0  0  0  0  0  0  0
    3.1958    0.1250    0.3219 N   0  0  0  0  0  0  0  0  0  0  0  0
    4.0461   -0.3680   -0.7084 C   0  0  0  0  0  0  0  0  0  0  0  0
    3.6774   -1.1018   -1.6303 O   0  0  0  0  0  0  0  0  0  0  0  0
    5.3961    0.2095   -0.3792 C   0  0  0  0  0  0  0  0  0  0  0  0
    5.3933    0.1418    1.1258 C   0  0  0  0  0  0  0  0  0  0  0  0
    3.9781    0.3885    1.4849 C   0  0  0  0  0  0  0  0  0  0  0  0
    3.5584    0.7608    2.6099 O   0  0  0  0  0  0  0  0  0  0  0  0
  1  2  1  0
  2  3  2  0
  2  4  2  0
  2  5  1  0
  5  6  2  0
  6  7  1  0
  7  8  2  0
  8  9  1  0
  9 10  2  0
  8 11  1  0
 11 12  2  0
 11 13  1  0
 13 14  1  0
 14 15  1  0
 15 16  2  0
 15 17  1  0
 17 18  1  0
 18 19  1  0
 19 20  2  0
 10  5  1  0
 19 14  1  0
M  END

