
     RDKit          3D

  8  8  0  0  0  0  0  0  0  0999 V2000
    2.6611   -0.4002   -1.4805 O   0  0  0  0  0  0  0  0  0  0  0  0
    2.6331    0.4671   -0.5702 C   0  0  0  0  0  0  0  0  0  0  0  0
    1.4913    0.5333    0.2539 N   0  0  0  0  0  0  0  0  0  0  0  0
    0.3479   -0.3464    0.1066 C   0  0  0  0  0  0  0  0  0  0  0  0
   -0.5144   -0.6734    1.2574 C   0  0  0  0  0  0  0  0  0  0  0  0
   -0.9836    0.3337    0.2998 C   0  0  0  0  0  0  0  0  0  0  0  0
   -2.0801    0.0305   -0.6217 C   0  0  0  0  0  0  0  0  0  0  0  0
   -2.9883   -0.2066   -1.3837 C   0  0  0  0  0  0  0  0  0  0  0  0
  1  2  2  0
  2  3  1  0
  3  4  1  0
  4  5  1  0
  5  6  1  0
  6  7  1  0
  7  8  3  0
  6  4  1  0
M  END

