
     RDKit          3D

 21 22  0  0  0  0  0  0  0  0999 V2000
    4.7163   -0.4950   -0.5781 C   0  0  0  0  0  0  0  0  0  0  0  0
    3.7313   -1.4844   -0.4969 C   0  0  0  0  0  0  0  0  0  0  0  0
    2.5387   -1.1641    0.0694 C   0  0  0  0  0  0  0  0  0  0  0  0
    2.2609    0.0739    0.5591 C   0  0  0  0  0  0  0  0  0  0  0  0
    3.2310    1.0451    0.4814 C   0  0  0  0  0  0  0  0  0  0  0  0
    4.4525    0.7763   -0.0817 C   0  0  0  0  0  0  0  0  0  0  0  0
    0.8582    0.3913    1.0901 C   0  0  0  0  0  0  0  0  0  0  0  0
    0.0043    0.8176    0.0913 N   0  0  0  0  0  0  0  0  0  0  0  0
   -0.5887    0.4563   -1.0754 C   0  0  0  0  0  0  0  0  0  0  0  0
   -1.2901   -0.8508   -1.0526 C   0  0  0  0  0  0  0  0  0  0  0  0
   -1.4245   -1.5758   -2.1928 C   0  0  0  0  0  0  0  0  0  0  0  0
   -2.0475   -2.8357   -2.2175 C   0  0  0  0  0  0  0  0  0  0  0  0
   -2.5387   -3.3504   -1.0390 C   0  0  0  0  0  0  0  0  0  0  0  0
   -2.4065   -2.6119    0.1313 C   0  0  0  0  0  0  0  0  0  0  0  0
   -1.7883   -1.3799    0.1088 C   0  0  0  0  0  0  0  0  0  0  0  0
   -0.4177    2.4814    0.3821 C   0  0  0  0  0  0  0  0  0  0  0  0
    0.6405    2.7736    0.0076 N   0  0  0  0  0  0  0  0  0  0  0  0
   -1.6579    2.1388    0.8210 N   0  0  0  0  0  0  0  0  0  0  0  0
   -2.5213    2.5934    1.8176 C   0  0  0  0  0  0  0  0  0  0  0  0
   -2.0515    3.5748    2.5422 O   0  0  0  0  0  0  0  0  0  0  0  0
   -3.7578    2.1162    2.1123 N   0  0  0  0  0  0  0  0  0  0  0  0
  1  2  2  0
  2  3  1  0
  3  4  2  0
  4  5  1  0
  5  6  2  0
  4  7  1  0
  7  8  1  0
  8  9  1  0
  9 10  1  0
 10 11  2  0
 11 12  1  0
 12 13  2  0
 13 14  1  0
 14 15  2  0
  8 16  1  0
 16 17  2  0
 16 18  1  0
 18 19  1  0
 19 20  2  0
 19 21  1  0
  6  1  1  0
 15 10  1  0
M  END

