C=C1CS(=O)(=O)C(=O)CCC2NC12
     RDKit          3D

 13 14  0  0  0  0  0  0  0  0999 V2000
   -2.3127   -0.0641    0.6101 C   0  0  0  0  0  0  0  0  0  0  0  0
   -1.3948   -0.1963   -0.3192 C   0  0  0  0  0  0  0  0  0  0  0  0
   -0.9471   -1.5913   -0.4710 C   0  0  0  0  0  0  0  0  0  0  0  0
    0.2870   -1.9108    0.7677 S   0  0  0  0  0  6  0  0  0  0  0  0
    0.4144   -3.3848    0.9550 O   0  0  0  0  0  0  0  0  0  0  0  0
   -0.0626   -1.2285    2.0611 O   0  0  0  0  0  0  0  0  0  0  0  0
    1.7762   -1.1998    0.1846 C   0  0  0  0  0  0  0  0  0  0  0  0
    2.6553   -2.0050    0.1122 O   0  0  0  0  0  0  0  0  0  0  0  0
    2.1367    0.1750   -0.2235 C   0  0  0  0  0  0  0  0  0  0  0  0
    1.1574    1.1945    0.2527 C   0  0  0  0  0  0  0  0  0  0  0  0
    0.1964    1.6884   -0.7732 C   0  0  0  0  0  0  0  0  0  0  0  0
   -0.9977    2.3157   -0.2069 N   0  0  0  0  0  0  0  0  0  0  0  0
   -1.0488    1.0714   -0.9738 C   0  0  0  0  0  0  0  0  0  0  0  0
  1  2  2  0
  2  3  1  0
  3  4  1  0
  4  5  2  0
  4  6  2  0
  4  7  1  0
  7  8  2  0
  7  9  1  0
  9 10  1  0
 10 11  1  0
 11 12  1  0
 12 13  1  0
 13  2  1  0
 13 11  1  0
M  END

