C[Si](C)O[Si](C)(C)O[Si](C1CCCCC1)(C2CCCCC2)O[Si](C)C
     RDKit          3D

 25 26  0  0  0  0  0  0  0  0999 V2000
    6.4187    1.0795    0.0401 C   0  0  0  0  0  0  0  0  0  0  0  0
    5.1682   -0.1877   -0.5309 Si  0  0  0  0  0  3  0  0  0  0  0  0
    6.0150   -1.8258   -0.6290 C   0  0  0  0  0  0  0  0  0  0  0  0
    3.8746   -0.1759    0.5746 O   0  0  0  0  0  0  0  0  0  0  0  0
    2.3579   -0.4677   -0.2075 Si  0  0  0  0  0  4  0  0  0  0  0  0
    2.3545    0.3896   -1.8627 C   0  0  0  0  0  0  0  0  0  0  0  0
    2.1081   -2.2913   -0.4989 C   0  0  0  0  0  0  0  0  0  0  0  0
    1.1577    0.0846    0.8356 O   0  0  0  0  0  0  0  0  0  0  0  0
   -0.4187    0.0712    0.1174 Si  0  0  0  0  0  4  0  0  0  0  0  0
   -1.5406   -0.5770    1.4143 C   0  0  0  0  0  0  0  0  0  0  0  0
   -0.9433   -1.8641    1.9535 C   0  0  0  0  0  0  0  0  0  0  0  0
   -1.5188   -2.2032    3.2909 C   0  0  0  0  0  0  0  0  0  0  0  0
   -2.9886   -1.8605    3.2885 C   0  0  0  0  0  0  0  0  0  0  0  0
   -3.5750   -1.9123    1.8935 C   0  0  0  0  0  0  0  0  0  0  0  0
   -2.9322   -0.8569    0.9981 C   0  0  0  0  0  0  0  0  0  0  0  0
   -0.7479    1.8069   -0.4359 C   0  0  0  0  0  0  0  0  0  0  0  0
   -2.1646    2.1214   -0.7170 C   0  0  0  0  0  0  0  0  0  0  0  0
   -2.8595    2.9892    0.2625 C   0  0  0  0  0  0  0  0  0  0  0  0
   -2.0079    4.1161    0.7988 C   0  0  0  0  0  0  0  0  0  0  0  0
   -0.8446    3.4048    1.5042 C   0  0  0  0  0  0  0  0  0  0  0  0
   -0.0251    2.7812    0.4357 C   0  0  0  0  0  0  0  0  0  0  0  0
   -0.3479   -1.0376   -1.1816 O   0  0  0  0  0  0  0  0  0  0  0  0
   -1.4832   -0.7842   -2.3777 Si  0  0  0  0  0  3  0  0  0  0  0  0
   -0.8899    0.0827   -3.8782 C   0  0  0  0  0  0  0  0  0  0  0  0
   -2.5718   -2.2355   -2.7353 C   0  0  0  0  0  0  0  0  0  0  0  0
  1  2  1  0
  2  3  1  0
  2  4  1  0
  4  5  1  0
  5  6  1  0
  5  7  1  0
  5  8  1  0
  8  9  1  0
  9 10  1  0
 10 11  1  0
 11 12  1  0
 12 13  1  0
 13 14  1  0
 14 15  1  0
  9 16  1  0
 16 17  1  0
 17 18  1  0
 18 19  1  0
 19 20  1  0
 20 21  1  0
  9 22  1  0
 22 23  1  0
 23 24  1  0
 23 25  1  0
 15 10  1  0
 21 16  1  0
M  RAD  2   2   2  23   2
M  END

