CCOC1=CC=CC=C1C2CC(=O)NC3=NNC(=C23)C
     RDKit          3D

 20 22  0  0  0  0  0  0  0  0999 V2000
    3.4168    0.3230   -1.2352 C   0  0  0  0  0  0  0  0  0  0  0  0
    2.6829   -0.7739   -0.5126 C   0  0  0  0  0  0  0  0  0  0  0  0
    1.4479   -0.2869   -0.0324 O   0  0  0  0  0  0  0  0  0  0  0  0
    0.6071   -1.1340    0.6662 C   0  0  0  0  0  0  0  0  0  0  0  0
    0.9793   -2.4588    0.8925 C   0  0  0  0  0  0  0  0  0  0  0  0
    0.1292   -3.2924    1.5914 C   0  0  0  0  0  0  0  0  0  0  0  0
   -1.0745   -2.7975    2.0532 C   0  0  0  0  0  0  0  0  0  0  0  0
   -1.4297   -1.4711    1.8177 C   0  0  0  0  0  0  0  0  0  0  0  0
   -0.5882   -0.6302    1.1209 C   0  0  0  0  0  0  0  0  0  0  0  0
   -0.9408    0.7728    0.8672 C   0  0  0  0  0  0  0  0  0  0  0  0
    0.0406    1.7425    1.4856 C   0  0  0  0  0  0  0  0  0  0  0  0
   -0.6123    3.0944    1.3316 C   0  0  0  0  0  0  0  0  0  0  0  0
   -0.8996    3.8414    2.2786 O   0  0  0  0  0  0  0  0  0  0  0  0
   -0.9037    3.5071   -0.0122 N   0  0  0  0  0  0  0  0  0  0  0  0
   -1.2049    2.4364   -0.9185 C   0  0  0  0  0  0  0  0  0  0  0  0
   -1.4984    2.5108   -2.2396 N   0  0  0  0  0  0  0  0  0  0  0  0
   -1.6934    1.2907   -2.6999 N   0  0  0  0  0  0  0  0  0  0  0  0
   -1.5274    0.4172   -1.6779 C   0  0  0  0  0  0  0  0  0  0  0  0
   -1.2110    1.1308   -0.5134 C   0  0  0  0  0  0  0  0  0  0  0  0
   -1.6568   -1.0398   -1.7643 C   0  0  0  0  0  0  0  0  0  0  0  0
  1  2  1  0
  2  3  1  0
  3  4  1  0
  4  5  2  0
  5  6  1  0
  6  7  2  0
  7  8  1  0
  8  9  2  0
  9 10  1  0
 10 11  1  0
 11 12  1  0
 12 13  2  0
 12 14  1  0
 14 15  1  0
 15 16  2  0
 16 17  1  0
 17 18  1  0
 18 19  2  0
 18 20  1  0
  9  4  1  0
 19 10  1  0
 19 15  1  0
M  END

