
     RDKit          3D

 16 17  0  0  0  0  0  0  0  0999 V2000
   -3.0283    2.1489   -0.6285 C   0  0  0  0  0  0  0  0  0  0  0  0
   -1.6923    1.7503   -0.3941 O   0  0  0  0  0  0  0  0  0  0  0  0
   -1.3976    0.4571   -0.0112 C   0  0  0  0  0  0  0  0  0  0  0  0
   -0.0485    0.1048    0.2117 C   0  0  0  0  0  0  0  0  0  0  0  0
    0.3565   -1.1295    0.5887 C   0  0  0  0  0  0  0  0  0  0  0  0
   -0.6889   -2.0631    0.7474 C   0  0  0  0  0  0  0  0  0  0  0  0
   -2.0031   -1.7312    0.5333 C   0  0  0  0  0  0  0  0  0  0  0  0
   -2.3767   -0.4679    0.1513 C   0  0  0  0  0  0  0  0  0  0  0  0
   -0.3907   -3.3722    1.1350 O   0  0  0  0  0  0  0  0  0  0  0  0
    1.6852   -1.6096    0.8450 C   0  0  0  0  0  0  0  0  0  0  0  0
    2.7150   -0.9426    0.7580 N   0  0  0  0  0  0  0  0  0  0  0  0
    2.9239    0.3299    0.4277 N   0  0  0  0  0  0  0  0  0  0  0  0
    2.9941    1.3874    1.2597 C   0  0  0  0  0  0  0  0  0  0  0  0
    3.2789    2.4978    0.5761 N   0  0  0  0  0  0  0  0  0  0  0  0
    3.3948    2.1765   -0.6892 N   0  0  0  0  0  0  0  0  0  0  0  0
    3.1830    0.8559   -0.8130 C   0  0  0  0  0  0  0  0  0  0  0  0
  1  2  1  0
  2  3  1  0
  3  4  2  0
  4  5  1  0
  5  6  2  0
  6  7  1  0
  7  8  2  0
  6  9  1  0
  5 10  1  0
 10 11  2  0
 11 12  1  0
 12 13  1  0
 13 14  2  0
 14 15  1  0
 15 16  2  0
  8  3  1  0
 16 12  1  0
M  END

