CC(C)C(=O)OCOC1CCC(CC1)C(=O)OC2CCC(CC2)OC
     RDKit          3D

 25 26  0  0  0  0  0  0  0  0999 V2000
    7.4492    2.1495   -0.3447 C   0  0  0  0  0  0  0  0  0  0  0  0
    7.2802    0.6644   -0.1584 C   0  0  0  0  0  0  0  0  0  0  0  0
    7.9263   -0.1184   -1.2845 C   0  0  0  0  0  0  0  0  0  0  0  0
    5.8089    0.3600   -0.2172 C   0  0  0  0  0  0  0  0  0  0  0  0
    4.9494    1.2654   -0.3960 O   0  0  0  0  0  0  0  0  0  0  0  0
    5.3577   -0.9356   -0.0749 O   0  0  0  0  0  0  0  0  0  0  0  0
    3.9633   -1.2729   -0.1241 C   0  0  0  0  0  0  0  0  0  0  0  0
    3.3547   -0.5773    0.9000 O   0  0  0  0  0  0  0  0  0  0  0  0
    1.9998   -0.7931    0.9911 C   0  0  0  0  0  0  0  0  0  0  0  0
    1.2830    0.5367    0.9152 C   0  0  0  0  0  0  0  0  0  0  0  0
   -0.1935    0.2962    0.7787 C   0  0  0  0  0  0  0  0  0  0  0  0
   -0.7541   -0.7361    1.6832 C   0  0  0  0  0  0  0  0  0  0  0  0
    0.1559   -1.7535    2.2201 C   0  0  0  0  0  0  0  0  0  0  0  0
    1.5946   -1.3418    2.3587 C   0  0  0  0  0  0  0  0  0  0  0  0
   -1.8831   -1.4086    0.9842 C   0  0  0  0  0  0  0  0  0  0  0  0
   -1.8494   -2.6491    0.7623 O   0  0  0  0  0  0  0  0  0  0  0  0
   -3.0102   -0.7353    0.5453 O   0  0  0  0  0  0  0  0  0  0  0  0
   -4.0646   -1.4332   -0.1210 C   0  0  0  0  0  0  0  0  0  0  0  0
   -4.1657   -0.7675   -1.4970 C   0  0  0  0  0  0  0  0  0  0  0  0
   -4.1500    0.7239   -1.2345 C   0  0  0  0  0  0  0  0  0  0  0  0
   -5.4615    1.0663   -0.5469 C   0  0  0  0  0  0  0  0  0  0  0  0
   -6.2336   -0.1842   -0.1744 C   0  0  0  0  0  0  0  0  0  0  0  0
   -5.3929   -1.1775    0.5635 C   0  0  0  0  0  0  0  0  0  0  0  0
   -6.1930    1.8361   -1.4216 O   0  0  0  0  0  0  0  0  0  0  0  0
   -6.4650    3.0609   -0.8166 C   0  0  0  0  0  0  0  0  0  0  0  0
  1  2  1  0
  2  3  1  0
  2  4  1  0
  4  5  2  0
  4  6  1  0
  6  7  1  0
  7  8  1  0
  8  9  1  0
  9 10  1  0
 10 11  1  0
 11 12  1  0
 12 13  1  0
 13 14  1  0
 12 15  1  0
 15 16  2  0
 15 17  1  0
 17 18  1  0
 18 19  1  0
 19 20  1  0
 20 21  1  0
 21 22  1  0
 22 23  1  0
 21 24  1  0
 24 25  1  0
 14  9  1  0
 23 18  1  0
M  END

