
     RDKit          3D

 12 12  0  0  0  0  0  0  0  0999 V2000
   -1.7335   -0.7592    1.0196 C   0  0  0  0  0  0  0  0  0  0  0  0
   -1.0895   -0.0672   -0.1379 C   0  0  0  0  0  0  0  0  0  0  0  0
   -1.3042   -0.7746   -1.4455 C   0  0  0  0  0  0  0  0  0  0  0  0
   -1.7133    1.3141   -0.2572 C   0  0  0  0  0  0  0  0  0  0  0  0
   -0.9516    2.3072   -1.7318 Br  0  0  0  0  0  0  0  0  0  0  0  0
    0.3820    0.0850    0.0838 C   0  0  0  0  0  0  0  0  0  0  0  0
    1.1613   -1.0362    0.2576 C   0  0  0  0  0  0  0  0  0  0  0  0
    2.5147   -0.8361    0.4586 C   0  0  0  0  0  0  0  0  0  0  0  0
    3.0787    0.4210    0.4873 C   0  0  0  0  0  0  0  0  0  0  0  0
    2.2598    1.5131    0.3088 C   0  0  0  0  0  0  0  0  0  0  0  0
    0.9497    1.3051    0.1148 N   0  0  0  0  0  0  0  0  0  0  0  0
    0.6629   -2.2981    0.2393 F   0  0  0  0  0  0  0  0  0  0  0  0
  1  2  1  0
  2  3  1  0
  2  4  1  0
  4  5  1  0
  2  6  1  0
  6  7  2  0
  7  8  1  0
  8  9  2  0
  9 10  1  0
 10 11  2  0
  7 12  1  0
 11  6  1  0
M  END

