
     RDKit          3D

 13 13  0  0  0  0  0  0  0  0999 V2000
   -1.1604    2.0201    0.0002 C   0  0  0  0  0  0  0  0  0  0  0  0
   -0.5821    0.6489    0.0346 C   0  0  0  0  0  0  0  0  0  0  0  0
    0.7654    0.4141   -0.1706 C   0  0  0  0  0  0  0  0  0  0  0  0
    1.3348   -0.8538   -0.1497 C   0  0  0  0  0  0  0  0  0  0  0  0
    0.4940   -1.8816    0.0864 N   0  0  0  0  0  0  0  0  0  0  0  0
   -0.8149   -1.6863    0.2889 C   0  0  0  0  0  0  0  0  0  0  0  0
   -1.3858   -0.4381    0.2702 C   0  0  0  0  0  0  0  0  0  0  0  0
   -2.8387   -0.2446    0.5028 C   0  0  0  0  0  0  0  0  0  0  0  0
   -3.3959   -1.5086    0.7027 O   0  0  0  0  0  0  0  0  0  0  0  0
    2.7510   -1.0815   -0.3673 C   0  0  0  0  0  0  0  0  0  0  0  0
    3.5598   -0.1202   -0.5922 N   0  0  0  0  0  0  0  0  0  0  0  0
    4.9187   -0.2951   -0.8050 O   0  0  0  0  0  0  0  0  0  0  0  0
    1.6036    1.4682   -0.4088 O   0  0  0  0  0  0  0  0  0  0  0  0
  1  2  1  0
  2  3  2  0
  3  4  1  0
  4  5  2  0
  5  6  1  0
  6  7  2  0
  7  8  1  0
  8  9  1  0
  4 10  1  0
 10 11  2  0
 11 12  1  0
  3 13  1  0
  7  2  1  0
M  END

