COC1=NC=C(C=C1)CC(=O)Cl
     RDKit          3D

 12 12  0  0  0  0  0  0  0  0999 V2000
   -3.7822    0.1157    0.6524 C   0  0  0  0  0  0  0  0  0  0  0  0
   -2.9885    0.2596   -0.5341 O   0  0  0  0  0  0  0  0  0  0  0  0
   -1.5983    0.0579   -0.4235 C   0  0  0  0  0  0  0  0  0  0  0  0
   -1.0639   -0.2723    0.7580 N   0  0  0  0  0  0  0  0  0  0  0  0
    0.2619   -0.4824    0.9290 C   0  0  0  0  0  0  0  0  0  0  0  0
    1.1625   -0.3720   -0.1225 C   0  0  0  0  0  0  0  0  0  0  0  0
    0.6413   -0.0365   -1.3425 C   0  0  0  0  0  0  0  0  0  0  0  0
   -0.7440    0.1785   -1.4906 C   0  0  0  0  0  0  0  0  0  0  0  0
    2.6331   -0.5795    0.1167 C   0  0  0  0  0  0  0  0  0  0  0  0
    3.3142    0.7332    0.2040 C   0  0  0  0  0  0  0  0  0  0  0  0
    3.5606    1.3169   -0.8600 O   0  0  0  0  0  0  0  0  0  0  0  0
    3.7669    1.4683    1.7215 Cl  0  0  0  0  0  0  0  0  0  0  0  0
  1  2  1  0
  2  3  1  0
  3  4  2  0
  4  5  1  0
  5  6  2  0
  6  7  1  0
  7  8  2  0
  6  9  1  0
  9 10  1  0
 10 11  2  0
 10 12  1  0
  8  3  1  0
M  END

