
     RDKit          3D

 13 12  0  0  0  0  0  0  0  0999 V2000
   -3.5825    0.7502    0.1919 C   0  0  0  0  0  0  0  0  0  0  0  0
   -2.5978   -0.2111    0.8119 C   0  0  0  0  0  0  0  0  0  0  0  0
   -3.0171   -1.5212    0.5856 O   0  0  0  0  0  0  0  0  0  0  0  0
   -1.2711   -0.0055    0.1213 C   0  0  0  0  0  0  0  0  0  0  0  0
   -0.2270   -0.9293    0.6816 C   0  0  0  0  0  0  0  0  0  0  0  0
    1.1109   -0.7668    0.0404 C   0  0  0  0  0  0  0  0  0  0  0  0
    1.6387    0.5069    0.1769 O   0  0  0  0  0  0  0  0  0  0  0  0
    2.8709    0.5210   -0.4573 C   0  0  0  0  0  0  0  0  0  0  0  0
    3.9934    0.9351    0.4633 C   0  0  0  0  0  0  0  0  0  0  0  0
    2.7818    1.4445   -1.5095 O   0  0  0  0  0  0  0  0  0  0  0  0
   -1.4851   -0.2887   -1.3113 C   0  0  0  0  0  0  0  0  0  0  0  0
   -2.1987    0.6237   -2.0969 O   0  0  0  0  0  1  0  0  0  0  0  0
   -1.0512   -1.3218   -1.8610 O   0  0  0  0  0  0  0  0  0  0  0  0
  1  2  1  0
  2  3  1  0
  2  4  1  0
  4  5  1  0
  5  6  1  0
  6  7  1  0
  7  8  1  0
  8  9  1  0
  8 10  1  0
  4 11  1  0
 11 12  1  0
 11 13  2  0
M  CHG  1  12  -1
M  END

