CC(O)C(CO)CCC[N]
     RDKit          3D

 10  9  0  0  0  0  0  0  0  0999 V2000
   -2.2661   -0.2468    1.3413 C   0  0  0  0  0  0  0  0  0  0  0  0
   -1.7293    0.4084    0.1152 C   0  0  0  0  0  0  0  0  0  0  0  0
   -1.4108    1.7279    0.3205 O   0  0  0  0  0  0  0  0  0  0  0  0
   -0.4232   -0.2916   -0.3630 C   0  0  0  0  0  0  0  0  0  0  0  0
   -0.0870    0.5525   -1.6044 C   0  0  0  0  0  0  0  0  0  0  0  0
   -1.2272    0.3986   -2.4468 O   0  0  0  0  0  0  0  0  0  0  0  0
    0.6159   -0.1246    0.6863 C   0  0  0  0  0  0  0  0  0  0  0  0
    1.9374   -0.7404    0.5381 C   0  0  0  0  0  0  0  0  0  0  0  0
    2.8057   -0.3974   -0.6113 C   0  0  0  0  0  0  0  0  0  0  0  0
    3.0981    1.0124   -0.7340 N   0  0  0  0  0  1  0  0  0  0  0  0
  1  2  1  0
  2  3  1  0
  2  4  1  0
  4  5  1  0
  5  6  1  0
  4  7  1  0
  7  8  1  0
  8  9  1  0
  9 10  1  0
M  RAD  1  10   3
M  END

