
     RDKit          3D

 13 13  0  0  0  0  0  0  0  0999 V2000
   -2.7624    0.9278   -0.3655 C   0  0  0  0  0  0  0  0  0  0  0  0
   -1.3669    0.9883   -0.3604 C   0  0  0  0  0  0  0  0  0  0  0  0
   -0.6301    0.0687    0.3491 C   0  0  0  0  0  0  0  0  0  0  0  0
   -1.3317   -0.8914    1.0371 C   0  0  0  0  0  0  0  0  0  0  0  0
   -2.7105   -0.9459    1.0282 C   0  0  0  0  0  0  0  0  0  0  0  0
   -3.3814   -0.0247    0.3199 N   0  0  0  0  0  0  0  0  0  0  0  0
   -0.3636   -2.2005    2.0442 Br  0  0  0  0  0  0  0  0  0  0  0  0
    0.7252    0.0816    0.3881 O   0  0  0  0  0  0  0  0  0  0  0  0
    1.6193   -0.5537   -0.4535 C   0  0  0  0  0  0  0  0  0  0  0  0
    3.0069   -0.2535   -0.0271 C   0  0  0  0  0  0  0  0  0  0  0  0
    3.1839    0.4868    0.9729 O   0  0  0  0  0  0  0  0  0  0  0  0
    4.1086   -0.7830   -0.7230 O   0  0  0  0  0  0  0  0  0  0  0  0
   -0.5256    2.3704   -1.3569 Br  0  0  0  0  0  0  0  0  0  0  0  0
  1  2  2  0
  2  3  1  0
  3  4  2  0
  4  5  1  0
  5  6  2  0
  4  7  1  0
  3  8  1  0
  8  9  1  0
  9 10  1  0
 10 11  2  0
 10 12  1  0
  2 13  1  0
  6  1  1  0
M  END

