
     RDKit          3D

 21 21  0  0  0  0  0  0  0  0999 V2000
    6.5388   -0.0960   -3.0198 C   0  0  0  0  0  0  0  0  0  0  0  0
    6.1341    0.4718   -1.6764 C   0  0  0  0  0  0  0  0  0  0  0  0
    4.6869    0.1750   -1.3398 C   0  0  0  0  0  0  0  0  0  0  0  0
    4.4206    0.7873    0.0165 C   0  0  0  0  0  0  0  0  0  0  0  0
    3.0299    0.5804    0.4797 C   0  0  0  0  0  0  0  0  0  0  0  0
    2.6584   -0.5328    1.1970 C   0  0  0  0  0  0  0  0  0  0  0  0
    1.3852   -0.7635    1.6447 C   0  0  0  0  0  0  0  0  0  0  0  0
    0.4142    0.2026    1.3451 C   0  0  0  0  0  0  0  0  0  0  0  0
    0.7403    1.3374    0.6275 C   0  0  0  0  0  0  0  0  0  0  0  0
    2.0596    1.5152    0.1981 C   0  0  0  0  0  0  0  0  0  0  0  0
   -0.9449   -0.0311    1.8146 C   0  0  0  0  0  0  0  0  0  0  0  0
   -1.2444   -1.0556    2.4692 O   0  0  0  0  0  0  0  0  0  0  0  0
   -1.9226    0.8939    1.5335 O   0  0  0  0  0  0  0  0  0  0  0  0
   -3.2395    0.7198    1.9626 C   0  0  0  0  0  0  0  0  0  0  0  0
   -3.9340   -0.4613    1.3732 C   0  0  0  0  0  0  0  0  0  0  0  0
   -4.1549   -0.5745    0.0194 N   0  0  0  0  0  0  0  0  0  0  0  0
   -3.1783   -0.7454   -0.9416 C   0  0  0  0  0  0  0  0  0  0  0  0
   -2.2812    0.3877   -1.2971 C   0  0  0  0  0  0  0  0  0  0  0  0
   -5.4823   -0.2809   -0.4683 C   0  0  0  0  0  0  0  0  0  0  0  0
   -6.4310   -1.3332    0.0055 C   0  0  0  0  0  0  0  0  0  0  0  0
    1.0188   -1.9327    2.3935 N   0  0  0  0  0  0  0  0  0  0  0  0
  1  2  1  0
  2  3  1  0
  3  4  1  0
  4  5  1  0
  5  6  2  0
  6  7  1  0
  7  8  2  0
  8  9  1  0
  9 10  2  0
  8 11  1  0
 11 12  2  0
 11 13  1  0
 13 14  1  0
 14 15  1  0
 15 16  1  0
 16 17  1  0
 17 18  1  0
 16 19  1  0
 19 20  1  0
  7 21  1  0
 10  5  1  0
M  END

