
     RDKit          3D

 13 13  0  0  0  0  0  0  0  0999 V2000
    3.7839    0.7227    0.0312 C   0  0  0  0  0  0  0  0  0  0  0  0
    2.3874    0.1512   -0.1115 C   0  0  0  0  0  0  0  0  0  0  0  0
    2.0693   -1.1444   -0.4379 C   0  0  0  0  0  0  0  0  0  0  0  0
    0.6642   -1.2478   -0.4626 C   0  0  0  0  0  0  0  0  0  0  0  0
    0.2093   -0.0011   -0.1477 C   0  0  0  0  0  0  0  0  0  0  0  0
    1.2713    0.7819    0.0487 O   0  0  0  0  0  0  0  0  0  0  0  0
   -1.1811    0.4228   -0.0394 C   0  0  0  0  0  0  0  0  0  0  0  0
   -1.3881    1.6951    0.2816 N   0  0  0  0  0  0  0  0  0  0  0  0
   -0.3002    2.4933    0.4818 O   0  0  0  0  0  0  0  0  0  0  0  0
   -2.3550   -0.3599   -0.2357 C   0  0  0  0  0  0  0  0  0  0  0  0
   -3.5275    0.2107   -0.0907 N   0  0  0  0  0  0  0  0  0  0  0  0
   -3.6793    1.5259    0.2411 O   0  0  0  0  0  0  0  0  0  0  0  0
   -2.3531   -1.7777   -0.5931 C   0  0  0  0  0  0  0  0  0  0  0  0
  1  2  1  0
  2  3  2  0
  3  4  1  0
  4  5  2  0
  5  6  1  0
  5  7  1  0
  7  8  2  0
  8  9  1  0
  7 10  1  0
 10 11  2  0
 11 12  1  0
 10 13  1  0
  6  2  1  0
M  END

