C1=NN(C2=C1C(=O)NC=N2)C3C(C(C(O3)CO)O)O
     RDKit          3D

 19 21  0  0  0  0  0  0  0  0999 V2000
    2.5429    1.9626   -0.5933 C   0  0  0  0  0  0  0  0  0  0  0  0
    1.2294    1.8917   -0.8341 N   0  0  0  0  0  0  0  0  0  0  0  0
    0.8092    0.6421   -0.6328 N   0  0  0  0  0  0  0  0  0  0  0  0
    1.8711   -0.0962   -0.2576 C   0  0  0  0  0  0  0  0  0  0  0  0
    3.0027    0.7077   -0.2186 C   0  0  0  0  0  0  0  0  0  0  0  0
    4.2355    0.2088    0.1356 C   0  0  0  0  0  0  0  0  0  0  0  0
    5.2489    0.9392    0.1681 O   0  0  0  0  0  0  0  0  0  0  0  0
    4.3532   -1.0890    0.4531 N   0  0  0  0  0  0  0  0  0  0  0  0
    3.2479   -1.8650    0.4129 C   0  0  0  0  0  0  0  0  0  0  0  0
    2.0364   -1.3905    0.0684 N   0  0  0  0  0  0  0  0  0  0  0  0
   -0.5042    0.1129   -0.7696 C   0  0  0  0  0  0  0  0  0  0  0  0
   -1.5718    1.2002   -0.8355 C   0  0  0  0  0  0  0  0  0  0  0  0
   -2.8063    0.2912   -0.7365 C   0  0  0  0  0  0  0  0  0  0  0  0
   -2.2686   -0.8391    0.1090 C   0  0  0  0  0  0  0  0  0  0  0  0
   -0.9475   -0.5699    0.3788 O   0  0  0  0  0  0  0  0  0  0  0  0
   -3.1160   -0.8911    1.3727 C   0  0  0  0  0  0  0  0  0  0  0  0
   -3.0567    0.3269    2.0304 O   0  0  0  0  0  0  0  0  0  0  0  0
   -3.0960   -0.2392   -1.9970 O   0  0  0  0  0  0  0  0  0  0  0  0
   -1.5798    1.9774    0.3175 O   0  0  0  0  0  0  0  0  0  0  0  0
  1  2  2  0
  2  3  1  0
  3  4  1  0
  4  5  2  0
  5  6  1  0
  6  7  2  0
  6  8  1  0
  8  9  1  0
  9 10  2  0
  3 11  1  0
 11 12  1  0
 12 13  1  0
 13 14  1  0
 14 15  1  0
 14 16  1  0
 16 17  1  0
 13 18  1  0
 12 19  1  0
  5  1  1  0
 10  4  1  0
 15 11  1  0
M  END

