C/C(=N/O)/C1=CC2=C(C=C(C=C2)O)OC1=O
     RDKit          3D

 16 17  0  0  0  0  0  0  0  0999 V2000
   -3.8109   -1.0195    0.0447 C   0  0  0  0  0  0  0  0  0  0  0  0
   -2.8089    0.0944   -0.1225 C   0  0  0  0  0  0  0  0  0  0  0  0
   -3.2998    1.2398   -0.3399 N   0  0  0  0  0  0  0  0  0  0  0  0
   -2.6035    2.3710   -0.5193 O   0  0  0  0  0  0  0  0  0  0  0  0
   -1.3879   -0.1809   -0.0308 C   0  0  0  0  0  0  0  0  0  0  0  0
   -0.4460    0.7779   -0.1684 C   0  0  0  0  0  0  0  0  0  0  0  0
    0.9035    0.4075   -0.0613 C   0  0  0  0  0  0  0  0  0  0  0  0
    1.2835   -0.9061    0.1799 C   0  0  0  0  0  0  0  0  0  0  0  0
    2.6126   -1.2770    0.2865 C   0  0  0  0  0  0  0  0  0  0  0  0
    3.5771   -0.3111    0.1484 C   0  0  0  0  0  0  0  0  0  0  0  0
    3.1992    1.0070   -0.0934 C   0  0  0  0  0  0  0  0  0  0  0  0
    1.8700    1.3617   -0.1972 C   0  0  0  0  0  0  0  0  0  0  0  0
    4.8973   -0.6833    0.2549 O   0  0  0  0  0  0  0  0  0  0  0  0
    0.3436   -1.7915    0.3047 O   0  0  0  0  0  0  0  0  0  0  0  0
   -0.9235   -1.4721    0.2090 C   0  0  0  0  0  0  0  0  0  0  0  0
   -1.7599   -2.3849    0.3418 O   0  0  0  0  0  0  0  0  0  0  0  0
  1  2  1  0
  2  3  2  0
  3  4  1  0
  2  5  1  0
  5  6  2  0
  6  7  1  0
  7  8  2  0
  8  9  1  0
  9 10  2  0
 10 11  1  0
 11 12  2  0
 10 13  1  0
  8 14  1  0
 14 15  1  0
 15 16  2  0
 15  5  1  0
 12  7  1  0
M  END

