
     RDKit          3D

 17 17  0  0  0  0  0  0  0  0999 V2000
    2.2771    0.3620    1.3097 C   0  0  0  0  0  0  0  0  0  0  0  0
    1.6167    0.1045    0.0494 N   0  0  0  0  0  0  0  0  0  0  0  0
    2.4330    0.1295   -1.1658 C   0  0  0  0  0  0  0  0  0  0  0  0
    0.2560   -0.1840   -0.0393 C   0  0  0  0  0  0  0  0  0  0  0  0
   -0.7397    0.7581    0.1454 C   0  0  0  0  0  0  0  0  0  0  0  0
   -2.0409    0.4226    0.0845 N   0  0  0  0  0  0  0  0  0  0  0  0
   -2.4423   -0.8310   -0.1570 C   0  0  0  0  0  0  0  0  0  0  0  0
   -1.4763   -1.8259   -0.3515 C   0  0  0  0  0  0  0  0  0  0  0  0
   -0.1567   -1.5110   -0.2939 C   0  0  0  0  0  0  0  0  0  0  0  0
   -1.9547   -3.2053   -0.5847 C   0  0  0  0  0  0  0  0  0  0  0  0
   -0.9755   -3.9468   -1.2303 F   0  0  0  0  0  0  0  0  0  0  0  0
   -3.1298   -3.2727   -1.2474 F   0  0  0  0  0  0  0  0  0  0  0  0
   -2.1449   -3.8244    0.6494 F   0  0  0  0  0  0  0  0  0  0  0  0
   -0.3815    2.1161    0.4195 C   0  0  0  0  0  0  0  0  0  0  0  0
   -1.3625    2.9861    0.6322 N   0  0  0  0  0  0  0  0  0  0  0  0
   -2.6590    2.4644    0.5584 O   0  0  0  0  0  0  0  0  0  0  0  0
    0.8875    2.6853    0.4886 N   0  0  0  0  0  0  0  0  0  0  0  0
  1  2  1  0
  2  3  1  0
  2  4  1  0
  4  5  2  0
  5  6  1  0
  6  7  2  0
  7  8  1  0
  8  9  2  0
  8 10  1  0
 10 11  1  0
 10 12  1  0
 10 13  1  0
  5 14  1  0
 14 15  2  0
 15 16  1  0
 14 17  1  0
  9  4  1  0
M  END

