
     RDKit          3D

 13 12  0  0  0  0  0  0  0  0999 V2000
    2.6227    1.2624    0.9368 C   0  0  0  0  0  0  0  0  0  0  0  0
    2.8212   -0.0763    0.3271 C   0  0  0  0  0  0  0  0  0  0  0  0
    3.5588   -0.8273    1.2952 O   0  0  0  0  0  0  0  0  0  0  0  0
    1.6619   -0.8674   -0.1304 C   0  0  0  0  0  0  0  0  0  0  0  0
    2.1687   -2.1972   -0.7221 C   0  0  0  0  0  0  0  0  0  0  0  0
    0.7176   -0.2938   -1.0979 C   0  0  0  0  0  0  0  0  0  0  0  0
   -0.0962    0.8925   -0.7208 C   0  0  0  0  0  0  0  0  0  0  0  0
   -0.9169    1.3090   -1.9262 C   0  0  0  0  0  0  0  0  0  0  0  0
   -0.9483    0.6656    0.4948 C   0  0  0  0  0  0  0  0  0  0  0  0
   -1.9454   -0.4142    0.4809 C   0  0  0  0  0  0  0  0  0  0  0  0
   -2.5934   -0.3720    1.9030 C   0  0  0  0  0  0  0  0  0  0  0  0
   -3.1209   -0.2785   -0.4434 C   0  0  0  0  0  0  0  0  0  0  0  0
   -3.8890    0.8693   -0.1672 O   0  0  0  0  0  0  0  0  0  0  0  0
  1  2  1  0
  2  3  1  0
  2  4  1  0
  4  5  1  0
  4  6  1  0
  6  7  1  0
  7  8  1  0
  7  9  1  0
  9 10  1  0
 10 11  1  0
 10 12  1  0
 12 13  1  0
M  END

