CC(O)C(=C)C([N])(C#C)CCCC
     RDKit          3D

 13 12  0  0  0  0  0  0  0  0999 V2000
   -2.9435   -0.1301   -0.7716 C   0  0  0  0  0  0  0  0  0  0  0  0
   -2.3065    1.0459   -0.0663 C   0  0  0  0  0  0  0  0  0  0  0  0
   -1.5524    1.8153   -0.9515 O   0  0  0  0  0  0  0  0  0  0  0  0
   -1.5045    0.5257    1.0715 C   0  0  0  0  0  0  0  0  0  0  0  0
   -1.8700    0.9400    2.2974 C   0  0  0  0  0  0  0  0  0  0  0  0
   -0.3533   -0.4030    0.9139 C   0  0  0  0  0  0  0  0  0  0  0  0
    0.2266   -0.6135    2.2525 N   0  0  0  0  0  1  0  0  0  0  0  0
   -0.7578   -1.6791    0.3315 C   0  0  0  0  0  0  0  0  0  0  0  0
   -1.0752   -2.7650   -0.1447 C   0  0  0  0  0  0  0  0  0  0  0  0
    0.7314    0.2083    0.0088 C   0  0  0  0  0  0  0  0  0  0  0  0
    1.8280   -0.8399   -0.0540 C   0  0  0  0  0  0  0  0  0  0  0  0
    2.9839   -0.3888   -0.9162 C   0  0  0  0  0  0  0  0  0  0  0  0
    3.6168    0.8779   -0.3993 C   0  0  0  0  0  0  0  0  0  0  0  0
  1  2  1  0
  2  3  1  0
  2  4  1  0
  4  5  2  0
  4  6  1  0
  6  7  1  0
  6  8  1  0
  8  9  3  0
  6 10  1  0
 10 11  1  0
 11 12  1  0
 12 13  1  0
M  RAD  1   7   3
M  END

