C1=CC=C(C=C1)CN2C(=O)C=C(N=C2N)NC3=CC=CC=C3
     RDKit          3D

 22 24  0  0  0  0  0  0  0  0999 V2000
   -5.0863   -0.5650   -2.2696 C   0  0  0  0  0  0  0  0  0  0  0  0
   -4.4031   -1.6695   -1.7991 C   0  0  0  0  0  0  0  0  0  0  0  0
   -3.6361   -1.5033   -0.6697 C   0  0  0  0  0  0  0  0  0  0  0  0
   -3.5046   -0.3177    0.0179 C   0  0  0  0  0  0  0  0  0  0  0  0
   -4.2007    0.7650   -0.4790 C   0  0  0  0  0  0  0  0  0  0  0  0
   -4.9891    0.6465   -1.6175 C   0  0  0  0  0  0  0  0  0  0  0  0
   -2.6714   -0.1903    1.2288 C   0  0  0  0  0  0  0  0  0  0  0  0
   -1.2879    0.1521    0.9808 N   0  0  0  0  0  0  0  0  0  0  0  0
   -0.3516   -0.7961    0.7902 C   0  0  0  0  0  0  0  0  0  0  0  0
   -0.7091   -2.0133    0.8326 O   0  0  0  0  0  0  0  0  0  0  0  0
    0.9911   -0.4852    0.5504 C   0  0  0  0  0  0  0  0  0  0  0  0
    1.4229    0.8080    0.4966 C   0  0  0  0  0  0  0  0  0  0  0  0
    0.4586    1.7441    0.6934 N   0  0  0  0  0  0  0  0  0  0  0  0
   -0.8308    1.4333    0.9240 C   0  0  0  0  0  0  0  0  0  0  0  0
   -1.7884    2.4625    1.1364 N   0  0  0  0  0  0  0  0  0  0  0  0
    2.7518    1.2364    0.2313 N   0  0  0  0  0  0  0  0  0  0  0  0
    3.8443    0.4334   -0.1306 C   0  0  0  0  0  0  0  0  0  0  0  0
    3.6981   -0.6118   -0.9912 C   0  0  0  0  0  0  0  0  0  0  0  0
    4.8101   -1.3978   -1.2907 C   0  0  0  0  0  0  0  0  0  0  0  0
    6.0392   -1.1476   -0.7465 C   0  0  0  0  0  0  0  0  0  0  0  0
    6.1676   -0.0878    0.1189 C   0  0  0  0  0  0  0  0  0  0  0  0
    5.0777    0.6945    0.4226 C   0  0  0  0  0  0  0  0  0  0  0  0
  1  2  2  0
  2  3  1  0
  3  4  2  0
  4  5  1  0
  5  6  2  0
  4  7  1  0
  7  8  1  0
  8  9  1  0
  9 10  2  0
  9 11  1  0
 11 12  2  0
 12 13  1  0
 13 14  2  0
 14 15  1  0
 12 16  1  0
 16 17  1  0
 17 18  2  0
 18 19  1  0
 19 20  2  0
 20 21  1  0
 21 22  2  0
  6  1  1  0
 14  8  1  0
 22 17  1  0
M  END

