
     RDKit          3D

 14 13  0  0  0  0  0  0  0  0999 V2000
    5.6941    0.4802   -0.1725 C   0  0  0  0  0  0  0  0  0  0  0  0
    4.9270   -0.8459   -0.1885 C   0  0  0  0  0  0  0  0  0  0  0  0
    5.3335   -1.6071    0.8800 O   0  0  0  0  0  0  0  0  0  0  0  0
    3.4859   -0.6091   -0.0586 C   0  0  0  0  0  0  0  0  0  0  0  0
    2.3005   -0.3963    0.0347 C   0  0  0  0  0  0  0  0  0  0  0  0
    0.8765   -0.1161    0.1363 C   0  0  0  0  0  0  0  0  0  0  0  0
    0.3207    0.8973   -0.4741 C   0  0  0  0  0  0  0  0  0  0  0  0
   -1.1155    1.2027   -0.3900 C   0  0  0  0  0  0  0  0  0  0  0  0
   -1.7775    0.1648    0.4800 C   0  0  0  0  0  0  0  0  0  0  0  0
   -3.1650    0.4587    0.5997 N   0  0  0  0  0  0  0  0  0  0  0  0
   -3.8948    0.2815   -0.5977 C   0  0  0  0  0  0  0  0  0  0  0  0
   -3.9986   -1.1349   -1.0363 C   0  0  0  0  0  0  0  0  0  0  0  0
   -4.6116   -1.3727   -2.0482 O   0  0  0  0  0  0  0  0  0  0  0  0
   -3.7506   -0.0293    1.7997 C   0  0  0  0  0  0  0  0  0  0  0  0
  1  2  1  0
  2  3  1  0
  2  4  1  0
  4  5  3  0
  5  6  1  0
  6  7  2  3
  7  8  1  0
  8  9  1  0
  9 10  1  0
 10 11  1  0
 11 12  1  0
 12 13  2  0
 10 14  1  0
M  END

