
     RDKit          3D

 15 14  0  0  0  0  0  0  0  0999 V2000
    3.1680    1.2040    0.7202 C   0  0  0  0  0  0  0  0  0  0  0  0
    2.5370   -0.1806    0.8499 C   0  0  0  0  0  0  0  0  0  0  0  0
    3.6071   -1.0650    1.0926 O   0  0  0  0  0  0  0  0  0  0  0  0
    1.9178   -0.5131   -0.4799 C   0  0  0  0  0  0  0  0  0  0  0  0
    3.0878   -0.3780   -1.4745 C   0  0  0  0  0  0  0  0  0  0  0  0
    0.9133    0.3254   -0.7396 O   0  0  0  0  0  0  0  0  0  0  0  0
   -0.3501   -0.0875   -0.9862 C   0  0  0  0  0  0  0  0  0  0  0  0
   -0.7834    0.0313   -2.4261 C   0  0  0  0  0  0  0  0  0  0  0  0
   -0.7637    1.3361   -2.9639 N   0  0  0  0  0  1  0  0  0  0  0  0
   -1.2870    0.4424    0.0028 C   0  0  0  0  0  0  0  0  0  0  0  0
   -0.9632   -0.0052    1.4105 C   0  0  0  0  0  0  0  0  0  0  0  0
   -2.7444    0.2173   -0.2070 C   0  0  0  0  0  0  0  0  0  0  0  0
   -3.4644    0.8721    0.9712 C   0  0  0  0  0  0  0  0  0  0  0  0
   -3.1197   -1.2465   -0.1869 C   0  0  0  0  0  0  0  0  0  0  0  0
   -3.2932    0.8184   -1.3860 N   0  0  0  0  0  1  0  0  0  0  0  0
  1  2  1  0
  2  3  1  0
  2  4  1  0
  4  5  1  0
  4  6  1  0
  6  7  1  0
  7  8  1  0
  8  9  1  0
  7 10  1  0
 10 11  1  0
 10 12  1  0
 12 13  1  0
 12 14  1  0
 12 15  1  0
M  RAD  2   9   3  15   3
M  END

