
     RDKit          3D

 13 14  0  0  0  0  0  0  0  0999 V2000
   -3.7882    0.3160    0.0428 N   0  0  0  0  0  0  0  0  0  0  0  0
   -2.5053   -0.1945    0.3652 N   0  0  0  0  0  0  0  0  0  0  0  0
   -2.2043   -1.3414    1.5579 S   0  0  0  0  0  0  0  0  0  0  0  0
   -0.4906   -1.4755    1.3930 C   0  0  0  0  0  0  0  0  0  0  0  0
    0.6879   -2.0428    1.7961 N   0  0  0  0  0  0  0  0  0  0  0  0
    1.6363   -1.4902    1.0231 C   0  0  0  0  0  0  0  0  0  0  0  0
    2.8600   -1.8107    1.1497 O   0  0  0  0  0  0  0  0  0  0  0  0
    1.1073   -0.6014    0.1525 N   0  0  0  0  0  0  0  0  0  0  0  0
    1.9080    0.1487   -0.8083 C   0  0  0  0  0  0  0  0  0  0  0  0
    2.3405    1.3890   -0.2190 C   0  0  0  0  0  0  0  0  0  0  0  0
    2.7009    2.4496    0.2684 C   0  0  0  0  0  0  0  0  0  0  0  0
   -0.2449   -0.5297    0.3198 C   0  0  0  0  0  0  0  0  0  0  0  0
   -1.3220    0.1008   -0.1705 C   0  0  0  0  0  0  0  0  0  0  0  0
  1  2  1  0
  2  3  1  0
  3  4  1  0
  4  5  2  0
  5  6  1  0
  6  7  2  0
  6  8  1  0
  8  9  1  0
  9 10  1  0
 10 11  3  0
  8 12  1  0
 12 13  2  0
 13  2  1  0
 12  4  1  0
M  END

