
     RDKit          3D

 20 21  0  0  0  0  0  0  0  0999 V2000
    7.5981    1.0786    1.1506 C   0  0  0  0  0  0  0  0  0  0  0  0
    6.1733    1.0670    0.9307 N   0  0  0  0  0  0  0  0  0  0  0  0
    5.4931   -0.1578    0.8491 C   0  0  0  0  0  0  0  0  0  0  0  0
    6.0552   -1.2676    0.9572 O   0  0  0  0  0  0  0  0  0  0  0  0
    4.0381   -0.1554    0.6242 C   0  0  0  0  0  0  0  0  0  0  0  0
    3.2017    0.9223    0.4743 C   0  0  0  0  0  0  0  0  0  0  0  0
    1.9435    0.6920    0.2843 N   0  0  0  0  0  0  0  0  0  0  0  0
    1.5065   -0.5540    0.2406 C   0  0  0  0  0  0  0  0  0  0  0  0
    2.9292   -1.4578    0.4778 S   0  0  0  0  0  0  0  0  0  0  0  0
    0.1611   -1.1050    0.0432 C   0  0  0  0  0  0  0  0  0  0  0  0
   -0.8917   -0.3280   -0.1344 C   0  0  0  0  0  0  0  0  0  0  0  0
   -2.2468   -0.8069   -0.3347 C   0  0  0  0  0  0  0  0  0  0  0  0
   -3.2551    0.1422   -0.5088 C   0  0  0  0  0  0  0  0  0  0  0  0
   -4.5788   -0.2199   -0.7064 C   0  0  0  0  0  0  0  0  0  0  0  0
   -4.9166   -1.5543   -0.7330 C   0  0  0  0  0  0  0  0  0  0  0  0
   -3.9476   -2.5198   -0.5646 C   0  0  0  0  0  0  0  0  0  0  0  0
   -2.6156   -2.1307   -0.3662 C   0  0  0  0  0  0  0  0  0  0  0  0
   -6.2567   -1.8900   -0.9337 O   0  0  0  0  0  0  0  0  0  0  0  0
   -5.5772    0.7228   -0.8789 O   0  0  0  0  0  0  0  0  0  0  0  0
   -5.3496    2.0993   -0.8702 C   0  0  0  0  0  0  0  0  0  0  0  0
  1  2  1  0
  2  3  1  0
  3  4  2  0
  3  5  1  0
  5  6  2  0
  6  7  1  0
  7  8  2  0
  8  9  1  0
  8 10  1  0
 10 11  2  0
 11 12  1  0
 12 13  2  0
 13 14  1  0
 14 15  2  0
 15 16  1  0
 16 17  2  0
 15 18  1  0
 14 19  1  0
 19 20  1  0
  9  5  1  0
 17 12  1  0
M  END

