CC(O)C(CO)CCCCS(=O)=O
     RDKit          3D

 13 12  0  0  0  0  0  0  0  0999 V2000
   -3.8718    0.8466    0.2609 C   0  0  0  0  0  0  0  0  0  0  0  0
   -2.5900    0.3403    0.8304 C   0  0  0  0  0  0  0  0  0  0  0  0
   -2.7238   -0.9997    1.1887 O   0  0  0  0  0  0  0  0  0  0  0  0
   -1.4627    0.4494   -0.1994 C   0  0  0  0  0  0  0  0  0  0  0  0
   -1.7684   -0.3481   -1.4196 C   0  0  0  0  0  0  0  0  0  0  0  0
   -2.9695    0.1325   -1.9969 O   0  0  0  0  0  0  0  0  0  0  0  0
   -0.1679    0.0726    0.4848 C   0  0  0  0  0  0  0  0  0  0  0  0
    0.9754    0.1604   -0.4669 C   0  0  0  0  0  0  0  0  0  0  0  0
    2.3016   -0.1945    0.1806 C   0  0  0  0  0  0  0  0  0  0  0  0
    3.3619   -0.0632   -0.8932 C   0  0  0  0  0  0  0  0  0  0  0  0
    4.9785   -0.4517   -0.2730 S   0  0  0  0  0  6  0  0  0  0  0  0
    5.9302   -0.3958   -1.4301 O   0  0  0  0  0  0  0  0  0  0  0  0
    4.9913   -1.8268    0.2790 O   0  0  0  0  0  0  0  0  0  0  0  0
  1  2  1  0
  2  3  1  0
  2  4  1  0
  4  5  1  0
  5  6  1  0
  4  7  1  0
  7  8  1  0
  8  9  1  0
  9 10  1  0
 10 11  1  0
 11 12  2  0
 11 13  2  0
M  END

