CCC1=CN=CC(=N)N1OCC#N
     RDKit          3D

 13 13  0  0  0  0  0  0  0  0999 V2000
   -2.4453   -1.1694   -0.0172 C   0  0  0  0  0  0  0  0  0  0  0  0
   -1.2762   -0.8774   -0.9586 C   0  0  0  0  0  0  0  0  0  0  0  0
   -0.6719    0.4400   -0.6016 C   0  0  0  0  0  0  0  0  0  0  0  0
   -1.1842    1.5899   -1.2199 C   0  0  0  0  0  0  0  0  0  0  0  0
   -0.6577    2.7794   -0.8927 N   0  0  0  0  0  0  0  0  0  0  0  0
    0.3340    2.8708    0.0037 C   0  0  0  0  0  0  0  0  0  0  0  0
    0.8177    1.7146    0.5968 C   0  0  0  0  0  0  0  0  0  0  0  0
    1.7589    1.7988    1.4668 N   0  0  0  0  0  0  0  0  0  0  0  0
    0.3252    0.4997    0.3023 N   0  0  0  0  0  0  0  0  0  0  0  0
    0.8296   -0.6317    0.8877 O   0  0  0  0  0  0  0  0  0  0  0  0
    1.9502   -1.2472    0.2846 C   0  0  0  0  0  0  0  0  0  0  0  0
    2.3712   -2.4391    1.0228 C   0  0  0  0  0  0  0  0  0  0  0  0
    2.7156   -3.3616    1.5913 N   0  0  0  0  0  0  0  0  0  0  0  0
  1  2  1  0
  2  3  1  0
  3  4  2  0
  4  5  1  0
  5  6  2  0
  6  7  1  0
  7  8  2  0
  7  9  1  0
  9 10  1  0
 10 11  1  0
 11 12  1  0
 12 13  3  0
  9  3  1  0
M  END

