CC(C)(CO)SS(=O)(=O)C
     RDKit          3D

 10  9  0  0  0  0  0  0  0  0999 V2000
   -0.4912   -1.2738    0.6431 C   0  0  0  0  0  0  0  0  0  0  0  0
   -0.8785    0.0938    0.1009 C   0  0  0  0  0  0  0  0  0  0  0  0
   -0.8088    1.0272    1.3211 C   0  0  0  0  0  0  0  0  0  0  0  0
   -2.3452    0.0772   -0.3193 C   0  0  0  0  0  0  0  0  0  0  0  0
   -2.5583   -0.8759   -1.3038 O   0  0  0  0  0  0  0  0  0  0  0  0
    0.1459    0.6246   -1.1441 S   0  0  0  0  0  0  0  0  0  0  0  0
    2.0723    1.0050   -0.5324 S   0  0  0  0  0  6  0  0  0  0  0  0
    2.4190    1.8431   -1.7245 O   0  0  0  0  0  0  0  0  0  0  0  0
    2.2970    1.9287    0.6135 O   0  0  0  0  0  0  0  0  0  0  0  0
    3.0324   -0.4748   -0.4488 C   0  0  0  0  0  0  0  0  0  0  0  0
  1  2  1  0
  2  3  1  0
  2  4  1  0
  4  5  1  0
  2  6  1  0
  6  7  1  0
  7  8  2  0
  7  9  2  0
  7 10  1  0
M  END

