
     RDKit          3D

 11 10  0  0  0  0  0  0  0  0999 V2000
   -2.9227    1.2795   -0.5130 C   0  0  0  0  0  0  0  0  0  0  0  0
   -2.3151   -0.1086   -0.7384 C   0  0  0  0  0  0  0  0  0  0  0  0
   -2.5932   -0.8894    0.3690 O   0  0  0  0  0  0  0  0  0  0  0  0
   -0.8515    0.0869   -0.8210 C   0  0  0  0  0  0  0  0  0  0  0  0
   -0.3368    0.7656   -1.7455 O   0  0  0  0  0  0  0  0  0  0  0  0
   -0.0354   -0.4701    0.1107 O   0  0  0  0  0  0  0  0  0  0  0  0
    1.3642   -0.3654    0.1524 C   0  0  0  0  0  0  0  0  0  0  0  0
    2.0538   -0.9092   -1.0548 C   0  0  0  0  0  0  0  0  0  0  0  0
    1.8241   -1.1666    1.3568 C   0  0  0  0  0  0  0  0  0  0  0  0
    1.7480    1.0372    0.3178 C   0  0  0  0  0  0  0  0  0  0  0  0
    2.0517    2.1947    0.4681 C   0  0  0  0  0  0  0  0  0  0  0  0
  1  2  1  0
  2  3  1  0
  2  4  1  0
  4  5  2  0
  4  6  1  0
  6  7  1  0
  7  8  1  0
  7  9  1  0
  7 10  1  0
 10 11  3  0
M  END

