CC1=CC2=C(S1)C3=C(N2)C(=O)N(N=C3)CCO
     RDKit          3D

 17 19  0  0  0  0  0  0  0  0999 V2000
    5.7266   -0.2375   -0.6517 C   0  0  0  0  0  0  0  0  0  0  0  0
    4.2488   -0.1306   -0.4534 C   0  0  0  0  0  0  0  0  0  0  0  0
    3.2675    0.2793   -1.3054 C   0  0  0  0  0  0  0  0  0  0  0  0
    2.0049    0.2763   -0.8623 C   0  0  0  0  0  0  0  0  0  0  0  0
    1.7912   -0.1377    0.4128 C   0  0  0  0  0  0  0  0  0  0  0  0
    3.3674   -0.5189    0.9768 S   0  0  0  0  0  0  0  0  0  0  0  0
    0.4515   -0.0894    0.7334 C   0  0  0  0  0  0  0  0  0  0  0  0
   -0.1784    0.3717   -0.3879 C   0  0  0  0  0  0  0  0  0  0  0  0
    0.7501    0.5820   -1.3177 N   0  0  0  0  0  0  0  0  0  0  0  0
   -1.5700    0.5156   -0.3269 C   0  0  0  0  0  0  0  0  0  0  0  0
   -2.1253    0.9451   -1.3821 O   0  0  0  0  0  0  0  0  0  0  0  0
   -2.2570    0.2171    0.7759 N   0  0  0  0  0  0  0  0  0  0  0  0
   -1.6136   -0.2265    1.8418 N   0  0  0  0  0  0  0  0  0  0  0  0
   -0.2798   -0.3913    1.8612 C   0  0  0  0  0  0  0  0  0  0  0  0
   -3.6809    0.3795    0.7944 C   0  0  0  0  0  0  0  0  0  0  0  0
   -4.4181   -0.8615    0.3515 C   0  0  0  0  0  0  0  0  0  0  0  0
   -5.7886   -0.5700    0.4155 O   0  0  0  0  0  0  0  0  0  0  0  0
  1  2  1  0
  2  3  2  0
  3  4  1  0
  4  5  2  0
  5  6  1  0
  5  7  1  0
  7  8  2  0
  8  9  1  0
  8 10  1  0
 10 11  2  0
 10 12  1  0
 12 13  1  0
 13 14  2  0
 12 15  1  0
 15 16  1  0
 16 17  1  0
  6  2  1  0
  9  4  1  0
 14  7  1  0
M  END

