C1=C(C=NC=C1I)CC(=O)O
     RDKit          3D

 11 11  0  0  0  0  0  0  0  0999 V2000
   -0.8119    0.5684    0.8948 C   0  0  0  0  0  0  0  0  0  0  0  0
   -0.0654   -0.3375    0.1629 C   0  0  0  0  0  0  0  0  0  0  0  0
   -0.6545   -1.1259   -0.8044 C   0  0  0  0  0  0  0  0  0  0  0  0
   -1.9810   -0.9673   -0.9951 N   0  0  0  0  0  0  0  0  0  0  0  0
   -2.7260   -0.0934   -0.2958 C   0  0  0  0  0  0  0  0  0  0  0  0
   -2.1740    0.7124    0.6795 C   0  0  0  0  0  0  0  0  0  0  0  0
   -3.3497    2.0770    1.7682 I   0  0  0  0  0  0  0  0  0  0  0  0
    1.3942   -0.4883    0.3973 C   0  0  0  0  0  0  0  0  0  0  0  0
    2.1377    0.4378   -0.4746 C   0  0  0  0  0  0  0  0  0  0  0  0
    1.5308    1.1950   -1.2582 O   0  0  0  0  0  0  0  0  0  0  0  0
    3.5127    0.4466   -0.4029 O   0  0  0  0  0  0  0  0  0  0  0  0
  1  2  2  0
  2  3  1  0
  3  4  2  0
  4  5  1  0
  5  6  2  0
  6  7  1  0
  2  8  1  0
  8  9  1  0
  9 10  2  0
  9 11  1  0
  6  1  1  0
M  END

