
     RDKit          3D

 20 21  0  0  0  0  0  0  0  0999 V2000
   -5.9014    0.2517    0.9657 C   0  0  0  0  0  0  0  0  0  0  0  0
   -5.2623   -0.2503   -0.3335 C   0  0  0  0  0  0  0  0  0  0  0  0
   -5.6304    0.7306   -1.4436 C   0  0  0  0  0  0  0  0  0  0  0  0
   -5.8080   -1.6246   -0.6207 C   0  0  0  0  0  0  0  0  0  0  0  0
   -3.7965   -0.3302   -0.1756 C   0  0  0  0  0  0  0  0  0  0  0  0
   -3.1055    0.6809    0.4079 C   0  0  0  0  0  0  0  0  0  0  0  0
   -1.7045    0.6878    0.5564 C   0  0  0  0  0  0  0  0  0  0  0  0
   -1.0102   -0.4149    0.0718 C   0  0  0  0  0  0  0  0  0  0  0  0
   -1.6962   -1.4248   -0.5060 C   0  0  0  0  0  0  0  0  0  0  0  0
   -3.0799   -1.4216   -0.6481 C   0  0  0  0  0  0  0  0  0  0  0  0
    0.3520   -0.4463    0.1812 O   0  0  0  0  0  0  0  0  0  0  0  0
    1.0553    0.6036    0.7476 C   0  0  0  0  0  0  0  0  0  0  0  0
    2.5520    0.4038    0.7552 C   0  0  0  0  0  0  0  0  0  0  0  0
    3.0445    0.2154   -0.6596 C   0  0  0  0  0  0  0  0  0  0  0  0
    4.4530    0.0351   -0.7618 N   0  0  0  0  0  0  0  0  0  0  0  0
    5.2490    1.1826   -0.5060 C   0  0  0  0  0  0  0  0  0  0  0  0
    6.6697    0.8097   -0.1139 C   0  0  0  0  0  0  0  0  0  0  0  0
    6.5216    0.0908    1.2047 C   0  0  0  0  0  0  0  0  0  0  0  0
    5.6359   -0.8849    1.1863 C   0  0  0  0  0  0  0  0  0  0  0  0
    4.9130   -1.1536   -0.0652 C   0  0  0  0  0  0  0  0  0  0  0  0
  1  2  1  0
  2  3  1  0
  2  4  1  0
  2  5  1  0
  5  6  2  0
  6  7  1  0
  7  8  2  0
  8  9  1  0
  9 10  2  0
  8 11  1  0
 11 12  1  0
 12 13  1  0
 13 14  1  0
 14 15  1  0
 15 16  1  0
 16 17  1  0
 17 18  1  0
 18 19  2  0
 19 20  1  0
 10  5  1  0
 20 15  1  0
M  END

