
     RDKit          3D

 13 12  0  0  0  0  0  0  0  0999 V2000
    0.8403   -0.7325    0.2408 C   0  0  0  0  0  0  0  0  0  0  0  0
   -0.0039    0.3151    0.9515 C   0  0  0  0  0  0  0  0  0  0  0  0
   -1.2991   -0.2915    1.4483 C   0  0  0  0  0  0  0  0  0  0  0  0
   -2.1433   -0.7443    0.3754 N   0  0  0  0  0  0  0  0  0  0  0  0
   -2.9648    0.0680   -0.1763 C   0  0  0  0  0  0  0  0  0  0  0  0
   -3.8096   -0.3761   -1.2464 N   0  0  0  0  0  0  0  0  0  0  0  0
   -3.0130    1.4029    0.2972 N   0  0  0  0  0  0  0  0  0  0  0  0
   -0.2183    1.4106    0.1344 O   0  0  0  0  0  0  0  0  0  0  0  0
    2.1283   -0.0660   -0.2362 C   0  0  0  0  0  0  0  0  0  0  0  0
    2.9707   -1.0631   -0.9323 C   0  0  0  0  0  0  0  0  0  0  0  0
    2.4571   -1.6959   -1.8823 O   0  0  0  0  0  0  0  0  0  0  0  0
    4.2806   -1.2513   -0.5055 O   0  0  0  0  0  0  0  0  0  0  0  0
    2.7955    0.6073    0.8331 N   0  0  0  0  0  0  0  0  0  0  0  0
  1  2  1  0
  2  3  1  0
  3  4  1  0
  4  5  2  3
  5  6  1  0
  5  7  1  0
  2  8  1  0
  1  9  1  0
  9 10  1  0
 10 11  2  0
 10 12  1  0
  9 13  1  0
M  END

