CC(NC(=O)C=C)=C(C)C#CC=C
     RDKit          3D

 13 12  0  0  0  0  0  0  0  0999 V2000
    0.2775    1.2284   -0.1398 C   0  0  0  0  0  0  0  0  0  0  0  0
   -0.2718   -0.0858    0.2582 C   0  0  0  0  0  0  0  0  0  0  0  0
   -1.6782   -0.2748    0.4446 N   0  0  0  0  0  0  0  0  0  0  0  0
   -2.5815    0.7991    0.2509 C   0  0  0  0  0  0  0  0  0  0  0  0
   -2.2016    1.9531   -0.0886 O   0  0  0  0  0  0  0  0  0  0  0  0
   -3.9965    0.5523    0.4532 C   0  0  0  0  0  0  0  0  0  0  0  0
   -4.8499    1.5371    0.2780 C   0  0  0  0  0  0  0  0  0  0  0  0
    0.5641   -1.0852    0.4390 C   0  0  0  0  0  0  0  0  0  0  0  0
    0.0066   -2.3995    0.8378 C   0  0  0  0  0  0  0  0  0  0  0  0
    1.9815   -0.9277    0.2598 C   0  0  0  0  0  0  0  0  0  0  0  0
    3.1708   -0.7825    0.0979 C   0  0  0  0  0  0  0  0  0  0  0  0
    4.5779   -0.5905   -0.0981 C   0  0  0  0  0  0  0  0  0  0  0  0
    5.1809    0.5818   -0.0985 C   0  0  0  0  0  0  0  0  0  0  0  0
  1  2  1  0
  2  3  1  0
  3  4  1  0
  4  5  2  0
  4  6  1  0
  6  7  2  0
  2  8  2  3
  8  9  1  0
  8 10  1  0
 10 11  3  0
 11 12  1  0
 12 13  2  0
M  END

