CC(N)S(=O)(=O)N(C)C1CCC=C1
     RDKit          3D

 13 13  0  0  0  0  0  0  0  0999 V2000
    3.3595    0.2066    0.5054 C   0  0  0  0  0  0  0  0  0  0  0  0
    2.6295   -0.8200   -0.2865 C   0  0  0  0  0  0  0  0  0  0  0  0
    3.3034   -2.1084    0.0005 N   0  0  0  0  0  0  0  0  0  0  0  0
    0.9446   -1.0666    0.1548 S   0  0  0  0  0  6  0  0  0  0  0  0
    0.9095   -1.1740    1.6749 O   0  0  0  0  0  0  0  0  0  0  0  0
    0.5022   -2.4096   -0.3712 O   0  0  0  0  0  0  0  0  0  0  0  0
   -0.1143    0.1837   -0.2787 N   0  0  0  0  0  0  0  0  0  0  0  0
    0.1716    1.4428    0.3266 C   0  0  0  0  0  0  0  0  0  0  0  0
   -1.4757   -0.1368   -0.2807 C   0  0  0  0  0  0  0  0  0  0  0  0
   -2.2312    0.7238    0.7371 C   0  0  0  0  0  0  0  0  0  0  0  0
   -3.6497    0.5049    0.2099 C   0  0  0  0  0  0  0  0  0  0  0  0
   -3.4669    0.5051   -1.2443 C   0  0  0  0  0  0  0  0  0  0  0  0
   -2.2293    0.1395   -1.5335 C   0  0  0  0  0  0  0  0  0  0  0  0
  1  2  1  0
  2  3  1  0
  2  4  1  0
  4  5  2  0
  4  6  2  0
  4  7  1  0
  7  8  1  0
  7  9  1  0
  9 10  1  0
 10 11  1  0
 11 12  1  0
 12 13  2  0
 13  9  1  0
M  END

