CC(O)(C#C)C(=O)N1CC=CC1
     RDKit          3D

 12 12  0  0  0  0  0  0  0  0999 V2000
   -2.2844   -1.3403   -0.2758 C   0  0  0  0  0  0  0  0  0  0  0  0
   -1.5869   -0.0050   -0.0068 C   0  0  0  0  0  0  0  0  0  0  0  0
   -1.4654    0.6346   -1.2257 O   0  0  0  0  0  0  0  0  0  0  0  0
   -2.4875    0.7490    0.9016 C   0  0  0  0  0  0  0  0  0  0  0  0
   -3.2118    1.3795    1.6315 C   0  0  0  0  0  0  0  0  0  0  0  0
   -0.2681   -0.1981    0.5936 C   0  0  0  0  0  0  0  0  0  0  0  0
   -0.2632   -0.7446    1.7601 O   0  0  0  0  0  0  0  0  0  0  0  0
    0.9884    0.1439    0.0450 N   0  0  0  0  0  0  0  0  0  0  0  0
    2.2591   -0.0564    0.7039 C   0  0  0  0  0  0  0  0  0  0  0  0
    3.2148   -0.2699   -0.3992 C   0  0  0  0  0  0  0  0  0  0  0  0
    2.6679    0.1845   -1.5092 C   0  0  0  0  0  0  0  0  0  0  0  0
    1.2933    0.7399   -1.2321 C   0  0  0  0  0  0  0  0  0  0  0  0
  1  2  1  0
  2  3  1  0
  2  4  1  0
  4  5  3  0
  2  6  1  0
  6  7  2  0
  6  8  1  0
  8  9  1  0
  9 10  1  0
 10 11  2  0
 11 12  1  0
 12  8  1  0
M  END

