
     RDKit          3D

 14 15  0  0  0  0  0  0  0  0999 V2000
    3.6416    1.1200   -0.5057 C   0  0  0  0  0  0  0  0  0  0  0  0
    3.6566    0.0646    0.5617 C   0  0  0  0  0  0  0  0  0  0  0  0
    4.7792   -0.3535    1.0135 O   0  0  0  0  0  0  0  0  0  0  0  0
    2.3723   -0.3398    0.9376 N   0  0  0  0  0  0  0  0  0  0  0  0
    1.4749   -0.5023   -0.1500 C   0  0  0  0  0  0  0  0  0  0  0  0
    0.4130   -1.2302   -0.2537 N   0  0  0  0  0  0  0  0  0  0  0  0
   -0.2749   -1.1919   -1.4473 N   0  0  0  0  0  0  0  0  0  0  0  0
   -1.4761   -0.7933   -1.5721 C   0  0  0  0  0  0  0  0  0  0  0  0
   -2.2276   -0.3379   -0.4331 C   0  0  0  0  0  0  0  0  0  0  0  0
   -3.5499    0.1073   -0.5315 C   0  0  0  0  0  0  0  0  0  0  0  0
   -3.9927    0.4726    0.7121 C   0  0  0  0  0  0  0  0  0  0  0  0
   -2.9894    0.2639    1.5495 N   0  0  0  0  0  0  0  0  0  0  0  0
   -1.9366   -0.2191    0.8691 N   0  0  0  0  0  0  0  0  0  0  0  0
    2.1490    0.5717   -1.4311 S   0  0  0  0  0  0  0  0  0  0  0  0
  1  2  1  0
  2  3  2  0
  2  4  1  0
  4  5  1  0
  5  6  2  0
  6  7  1  0
  7  8  2  0
  8  9  1  0
  9 10  2  0
 10 11  1  0
 11 12  2  0
 12 13  1  0
  5 14  1  0
 14  1  1  0
 13  9  1  0
M  END

