
     RDKit          3D

 22 23  0  0  0  0  0  0  0  0999 V2000
    4.2216    1.7725    0.7443 C   0  0  0  0  0  0  0  0  0  0  0  0
    4.4188    0.2749    0.7992 C   0  0  0  0  0  0  0  0  0  0  0  0
    5.4098   -0.0834   -0.3071 C   0  0  0  0  0  0  0  0  0  0  0  0
    5.0841   -0.0890    2.0999 C   0  0  0  0  0  0  0  0  0  0  0  0
    3.1391   -0.4698    0.6114 C   0  0  0  0  0  0  0  0  0  0  0  0
    2.6265   -1.2851    1.5096 C   0  0  0  0  0  0  0  0  0  0  0  0
    1.3665   -1.8385    0.9867 C   0  0  0  0  0  0  0  0  0  0  0  0
    1.2234   -1.2243   -0.3492 C   0  0  0  0  0  0  0  0  0  0  0  0
    2.2584   -0.4395   -0.5406 C   0  0  0  0  0  0  0  0  0  0  0  0
    0.1444   -1.4161   -1.3475 C   0  0  0  0  0  0  0  0  0  0  0  0
   -1.1995   -1.0085   -0.8122 C   0  0  0  0  0  0  0  0  0  0  0  0
   -1.7624   -1.8624   -0.1173 O   0  0  0  0  0  0  0  0  0  0  0  0
   -1.7723    0.2820   -1.1012 C   0  0  0  0  0  0  0  0  0  0  0  0
   -0.8839    1.2061   -1.6893 C   0  0  0  0  0  0  0  0  0  0  0  0
   -1.3342    2.4595   -2.0097 C   0  0  0  0  0  0  0  0  0  0  0  0
   -2.6385    2.8270   -1.7652 C   0  0  0  0  0  0  0  0  0  0  0  0
   -3.4957    1.9145   -1.1895 C   0  0  0  0  0  0  0  0  0  0  0  0
   -3.0656    0.6152   -0.8463 C   0  0  0  0  0  0  0  0  0  0  0  0
   -4.0150   -0.3036   -0.2180 C   0  0  0  0  0  0  0  0  0  0  0  0
   -5.3911    0.4296   -0.1226 C   0  0  0  0  0  0  0  0  0  0  0  0
   -4.3244   -1.5519   -0.9816 C   0  0  0  0  0  0  0  0  0  0  0  0
   -3.7211   -0.5968    1.2494 C   0  0  0  0  0  0  0  0  0  0  0  0
  1  2  1  0
  2  3  1  0
  2  4  1  0
  2  5  1  0
  5  6  2  0
  6  7  1  0
  7  8  1  0
  8  9  2  0
  8 10  1  0
 10 11  1  0
 11 12  2  0
 11 13  1  0
 13 14  2  0
 14 15  1  0
 15 16  2  0
 16 17  1  0
 17 18  2  0
 18 19  1  0
 19 20  1  0
 19 21  1  0
 19 22  1  0
  9  5  1  0
 18 13  1  0
M  END

