
     RDKit          3D

 13 13  0  0  0  0  0  0  0  0999 V2000
    0.2216   -0.1017    0.5166 C   0  0  0  0  0  0  0  0  0  0  0  0
    1.3229   -0.0397   -0.3188 C   0  0  0  0  0  0  0  0  0  0  0  0
    1.1601   -0.5326   -1.5969 C   0  0  0  0  0  0  0  0  0  0  0  0
   -0.0182   -1.0401   -1.9813 N   0  0  0  0  0  0  0  0  0  0  0  0
   -1.0927   -1.0993   -1.1624 C   0  0  0  0  0  0  0  0  0  0  0  0
   -0.9944   -0.6234    0.1258 C   0  0  0  0  0  0  0  0  0  0  0  0
   -2.0878   -0.6878    0.9472 O   0  0  0  0  0  0  0  0  0  0  0  0
   -3.0710    0.2975    1.0876 C   0  0  0  0  0  0  0  0  0  0  0  0
   -3.7264    0.5722   -0.0957 F   0  0  0  0  0  0  0  0  0  0  0  0
   -2.5268    1.4656    1.6401 F   0  0  0  0  0  0  0  0  0  0  0  0
   -4.0103   -0.1531    1.9858 F   0  0  0  0  0  0  0  0  0  0  0  0
    2.5509    0.5020    0.1187 N   0  0  0  0  0  0  0  0  0  0  0  0
    2.7182    0.9972    1.3988 N   0  0  0  0  0  0  0  0  0  0  0  0
  1  2  2  0
  2  3  1  0
  3  4  2  0
  4  5  1  0
  5  6  2  0
  6  7  1  0
  7  8  1  0
  8  9  1  0
  8 10  1  0
  8 11  1  0
  2 12  1  0
 12 13  1  0
  6  1  1  0
M  END

