CC1=NN(C=C1CN2CCC3=C(C2)N=C(NC3=O)C)C
     RDKit          3D

 20 22  0  0  0  0  0  0  0  0999 V2000
   -2.9633    1.5345   -1.9530 C   0  0  0  0  0  0  0  0  0  0  0  0
   -3.2223    0.5474   -0.8474 C   0  0  0  0  0  0  0  0  0  0  0  0
   -4.2064   -0.3308   -0.8660 N   0  0  0  0  0  0  0  0  0  0  0  0
   -4.0734   -1.1369    0.1952 N   0  0  0  0  0  0  0  0  0  0  0  0
   -2.9748   -0.7421    0.8890 C   0  0  0  0  0  0  0  0  0  0  0  0
   -2.3831    0.3449    0.2677 C   0  0  0  0  0  0  0  0  0  0  0  0
   -1.4241    1.3094    0.7292 C   0  0  0  0  0  0  0  0  0  0  0  0
   -0.0403    1.1574    0.8119 N   0  0  0  0  0  0  0  0  0  0  0  0
    0.5088    1.9813   -0.2652 C   0  0  0  0  0  0  0  0  0  0  0  0
    1.6318    1.5647   -1.0254 C   0  0  0  0  0  0  0  0  0  0  0  0
    2.3391    0.2874   -0.6266 C   0  0  0  0  0  0  0  0  0  0  0  0
    1.9333   -0.2793    0.5296 C   0  0  0  0  0  0  0  0  0  0  0  0
    0.5565   -0.0614    1.0279 C   0  0  0  0  0  0  0  0  0  0  0  0
    2.8301   -1.1357    1.1290 N   0  0  0  0  0  0  0  0  0  0  0  0
    4.0058   -1.3727    0.5632 C   0  0  0  0  0  0  0  0  0  0  0  0
    4.3636   -0.8138   -0.5873 N   0  0  0  0  0  0  0  0  0  0  0  0
    3.5232    0.0447   -1.2228 C   0  0  0  0  0  0  0  0  0  0  0  0
    3.8200    0.5801   -2.3228 O   0  0  0  0  0  0  0  0  0  0  0  0
    5.0983   -2.1180    1.3540 C   0  0  0  0  0  0  0  0  0  0  0  0
   -5.0695   -2.1404    0.4406 C   0  0  0  0  0  0  0  0  0  0  0  0
  1  2  1  0
  2  3  2  0
  3  4  1  0
  4  5  1  0
  5  6  2  0
  6  7  1  0
  7  8  1  0
  8  9  1  0
  9 10  1  0
 10 11  1  0
 11 12  2  0
 12 13  1  0
 12 14  1  0
 14 15  2  0
 15 16  1  0
 16 17  1  0
 17 18  2  0
 15 19  1  0
  4 20  1  0
  6  2  1  0
 13  8  1  0
 17 11  1  0
M  END

