
     RDKit          3D

 13 12  0  0  0  0  0  0  0  0999 V2000
    0.2261   -1.9620   -0.6084 C   0  0  0  0  0  0  0  0  0  0  0  0
   -0.1473   -0.7664    0.2424 C   0  0  0  0  0  0  0  0  0  0  0  0
    0.4918    0.4394   -0.2066 N   0  0  0  0  0  0  0  0  0  0  0  0
    1.9016    0.5004   -0.2298 C   0  0  0  0  0  0  0  0  0  0  0  0
    2.5708    1.3311    0.5668 C   0  0  0  0  0  0  0  0  0  0  0  0
    4.0233    1.3708    0.5196 C   0  0  0  0  0  0  0  0  0  0  0  0
    4.7208    0.5293   -0.3698 N   0  0  0  0  0  0  0  0  0  0  0  0
    4.6293    2.1758    1.2942 O   0  0  0  0  0  0  0  0  0  0  0  0
   -1.6101   -0.6689    0.2042 C   0  0  0  0  0  0  0  0  0  0  0  0
   -2.8155   -0.6028    0.1883 C   0  0  0  0  0  0  0  0  0  0  0  0
   -4.2482   -0.5426    0.1860 C   0  0  0  0  0  0  0  0  0  0  0  0
   -5.0127    0.7290    0.1785 C   0  0  0  0  0  0  0  0  0  0  0  0
   -4.8742   -1.6303    0.1907 O   0  0  0  0  0  0  0  0  0  0  0  0
  1  2  1  0
  2  3  1  0
  3  4  1  0
  4  5  2  3
  5  6  1  0
  6  7  1  0
  6  8  2  0
  2  9  1  0
  9 10  3  0
 10 11  1  0
 11 12  1  0
 11 13  2  0
M  END

