
     RDKit          3D

 20 22  0  0  0  0  0  0  0  0999 V2000
   -4.4460   -0.5187   -1.5137 C   0  0  0  0  0  0  0  0  0  0  0  0
   -3.1311   -0.5459   -1.9301 C   0  0  0  0  0  0  0  0  0  0  0  0
   -2.2080    0.2414   -1.2744 C   0  0  0  0  0  0  0  0  0  0  0  0
   -2.5558    1.0647   -0.2048 C   0  0  0  0  0  0  0  0  0  0  0  0
   -3.8716    1.0647    0.1800 C   0  0  0  0  0  0  0  0  0  0  0  0
   -4.8117    0.2870   -0.4595 C   0  0  0  0  0  0  0  0  0  0  0  0
   -1.5188    1.8936    0.4666 C   0  0  0  0  0  0  0  0  0  0  0  0
   -0.8625    1.1634    1.6134 C   0  0  0  0  0  0  0  0  0  0  0  0
   -0.2093   -0.0391    1.2150 N   0  0  0  0  0  0  0  0  0  0  0  0
   -0.6908   -1.2994    1.1375 C   0  0  0  0  0  0  0  0  0  0  0  0
    0.2605   -2.1433    0.7142 N   0  0  0  0  0  0  0  0  0  0  0  0
    1.3693   -1.4303    0.5143 C   0  0  0  0  0  0  0  0  0  0  0  0
    1.0870   -0.0942    0.8276 C   0  0  0  0  0  0  0  0  0  0  0  0
    2.0745    0.8021    0.6947 N   0  0  0  0  0  0  0  0  0  0  0  0
    3.3112    0.4917    0.2805 C   0  0  0  0  0  0  0  0  0  0  0  0
    3.5820   -0.8247   -0.0260 C   0  0  0  0  0  0  0  0  0  0  0  0
    2.6223   -1.7989    0.0853 C   0  0  0  0  0  0  0  0  0  0  0  0
    4.9095   -1.2164   -0.4807 C   0  0  0  0  0  0  0  0  0  0  0  0
    5.1785   -2.4219   -0.7678 O   0  0  0  0  0  0  0  0  0  0  0  0
    5.9169   -0.2085   -0.5999 N   0  0  0  0  0  0  0  0  0  0  0  0
  1  2  2  0
  2  3  1  0
  3  4  2  0
  4  5  1  0
  5  6  2  0
  4  7  1  0
  7  8  1  0
  8  9  1  0
  9 10  1  0
 10 11  2  0
 11 12  1  0
 12 13  2  0
 13 14  1  0
 14 15  2  0
 15 16  1  0
 16 17  2  0
 16 18  1  0
 18 19  2  0
 18 20  1  0
  6  1  1  0
 13  9  1  0
 17 12  1  0
M  END

