
     RDKit          3D

 19 21  0  0  0  0  0  0  0  0999 V2000
   -4.6001    0.0171   -0.1531 C   0  0  0  0  0  0  0  0  0  0  0  0
   -3.2927   -0.5967   -0.4275 N   0  0  0  0  0  0  0  0  0  0  0  0
   -2.5369   -0.7336    0.7621 C   0  0  0  0  0  0  0  0  0  0  0  0
   -1.3682    0.1761    0.9281 C   0  0  0  0  0  0  0  0  0  0  0  0
   -0.7456    0.5747   -0.2918 N   0  0  0  0  0  0  0  0  0  0  0  0
   -1.1702   -0.0626   -1.4990 C   0  0  0  0  0  0  0  0  0  0  0  0
   -2.6955    0.1454   -1.4888 C   0  0  0  0  0  0  0  0  0  0  0  0
    0.2004    1.5482   -0.3222 N   0  0  0  0  0  0  0  0  0  0  0  0
    1.4539    1.4331   -0.2098 C   0  0  0  0  0  0  0  0  0  0  0  0
    2.1782    0.1995   -0.0181 C   0  0  0  0  0  0  0  0  0  0  0  0
    3.5084    0.5406    0.0507 C   0  0  0  0  0  0  0  0  0  0  0  0
    4.4810   -0.4257    0.2331 C   0  0  0  0  0  0  0  0  0  0  0  0
    4.0610   -1.7302    0.3415 C   0  0  0  0  0  0  0  0  0  0  0  0
    2.7309   -2.0750    0.2731 C   0  0  0  0  0  0  0  0  0  0  0  0
    1.7491   -1.0939    0.0884 C   0  0  0  0  0  0  0  0  0  0  0  0
    2.2437   -3.9274    0.4357 Br  0  0  0  0  0  0  0  0  0  0  0  0
    3.6934    1.9431   -0.0870 N   0  0  0  0  0  0  0  0  0  0  0  0
    2.4321    2.5451   -0.2528 C   0  0  0  0  0  0  0  0  0  0  0  0
    2.1208    3.7378   -0.4072 O   0  0  0  0  0  0  0  0  0  0  0  0
  1  2  1  0
  2  3  1  0
  3  4  1  0
  4  5  1  0
  5  6  1  0
  6  7  1  0
  5  8  1  0
  8  9  2  0
  9 10  1  0
 10 11  1  0
 11 12  2  0
 12 13  1  0
 13 14  2  0
 14 15  1  0
 14 16  1  0
 11 17  1  0
 17 18  1  0
 18 19  2  0
  7  2  1  0
 18  9  1  0
 15 10  2  0
M  END

