CC(NC(=O)CCC1(C)CCCOCC1)C#C
     RDKit          3D

 17 17  0  0  0  0  0  0  0  0999 V2000
   -5.2828   -0.3273   -0.9922 C   0  0  0  0  0  0  0  0  0  0  0  0
   -4.1087    0.3339   -0.3030 C   0  0  0  0  0  0  0  0  0  0  0  0
   -2.9529   -0.5042   -0.2423 N   0  0  0  0  0  0  0  0  0  0  0  0
   -1.7117   -0.1665   -0.8813 C   0  0  0  0  0  0  0  0  0  0  0  0
   -1.6678    0.9050   -1.5069 O   0  0  0  0  0  0  0  0  0  0  0  0
   -0.5757   -1.0668   -0.7775 C   0  0  0  0  0  0  0  0  0  0  0  0
    0.7747   -0.6100   -1.1179 C   0  0  0  0  0  0  0  0  0  0  0  0
    1.4218    0.4279   -0.2823 C   0  0  0  0  0  0  0  0  0  0  0  0
    0.7151    1.7447   -0.2182 C   0  0  0  0  0  0  0  0  0  0  0  0
    1.5034   -0.1225    1.1354 C   0  0  0  0  0  0  0  0  0  0  0  0
    2.6606    0.5251    1.8353 C   0  0  0  0  0  0  0  0  0  0  0  0
    3.9810   -0.1196    1.4685 C   0  0  0  0  0  0  0  0  0  0  0  0
    3.8242   -1.0525    0.4416 O   0  0  0  0  0  0  0  0  0  0  0  0
    3.7390   -0.4369   -0.7981 C   0  0  0  0  0  0  0  0  0  0  0  0
    2.8127    0.7274   -0.8228 C   0  0  0  0  0  0  0  0  0  0  0  0
   -4.5178    0.7281    1.0257 C   0  0  0  0  0  0  0  0  0  0  0  0
   -4.8813    1.0540    2.1479 C   0  0  0  0  0  0  0  0  0  0  0  0
  1  2  1  0
  2  3  1  0
  3  4  1  0
  4  5  2  0
  4  6  1  0
  6  7  1  0
  7  8  1  0
  8  9  1  0
  8 10  1  0
 10 11  1  0
 11 12  1  0
 12 13  1  0
 13 14  1  0
 14 15  1  0
  2 16  1  0
 16 17  3  0
 15  8  1  0
M  END

