
     RDKit          3D

 12 12  0  0  0  0  0  0  0  0999 V2000
   -0.8908   -2.0779   -0.1660 C   0  0  0  0  0  0  0  0  0  0  0  0
   -1.7241   -0.9796   -0.0627 C   0  0  0  0  0  0  0  0  0  0  0  0
   -1.2196    0.2892    0.0155 C   0  0  0  0  0  0  0  0  0  0  0  0
    0.1073    0.4701   -0.0086 N   0  0  0  0  0  0  0  0  0  0  0  0
    0.9860   -0.5494   -0.1075 C   0  0  0  0  0  0  0  0  0  0  0  0
    0.4636   -1.8345   -0.1864 C   0  0  0  0  0  0  0  0  0  0  0  0
    2.3627   -0.3656   -0.1328 O   0  0  0  0  0  0  0  0  0  0  0  0
    2.8301    0.9693   -0.0488 C   0  0  0  0  0  0  0  0  0  0  0  0
    3.5820    1.2739   -1.1642 F   0  0  0  0  0  0  0  0  0  0  0  0
    3.6176    1.1148    1.0781 F   0  0  0  0  0  0  0  0  0  0  0  0
   -2.1142    1.4645    0.1263 C   0  0  0  0  0  0  0  0  0  0  0  0
   -2.4054    1.7859    1.8712 Cl  0  0  0  0  0  0  0  0  0  0  0  0
  1  2  2  0
  2  3  1  0
  3  4  2  0
  4  5  1  0
  5  6  2  0
  5  7  1  0
  7  8  1  0
  8  9  1  0
  8 10  1  0
  3 11  1  0
 11 12  1  0
  6  1  1  0
M  END

