
     RDKit          3D

 20 21  0  0  0  0  0  0  0  0999 V2000
   -3.5144   -1.7314    0.1873 C   0  0  0  0  0  0  0  0  0  0  0  0
   -4.7796   -1.3129   -0.1063 C   0  0  0  0  0  0  0  0  0  0  0  0
   -4.9903    0.0482   -0.2713 C   0  0  0  0  0  0  0  0  0  0  0  0
   -3.9484    0.9358   -0.1456 C   0  0  0  0  0  0  0  0  0  0  0  0
   -2.6400    0.5132    0.1531 C   0  0  0  0  0  0  0  0  0  0  0  0
   -2.4609   -0.8142    0.3150 C   0  0  0  0  0  0  0  0  0  0  0  0
   -1.7073    1.5980    0.3514 C   0  0  0  0  0  0  0  0  0  0  0  0
   -0.4683    1.4017    0.2620 N   0  0  0  0  0  0  0  0  0  0  0  0
    0.1956    0.3063   -0.0194 N   0  0  0  0  0  0  0  0  0  0  0  0
    1.6555    0.3564    0.1184 C   0  0  0  0  0  0  0  0  0  0  0  0
    2.3236    1.5439    0.2876 C   0  0  0  0  0  0  0  0  0  0  0  0
    3.7091    1.6053    0.3869 C   0  0  0  0  0  0  0  0  0  0  0  0
    4.4215    0.4400    0.3110 C   0  0  0  0  0  0  0  0  0  0  0  0
    3.7620   -0.7601    0.1388 C   0  0  0  0  0  0  0  0  0  0  0  0
    2.3932   -0.8014    0.0458 C   0  0  0  0  0  0  0  0  0  0  0  0
    4.6029   -1.9622    0.0673 C   0  0  0  0  0  0  0  0  0  0  0  0
    3.8546   -3.1174    0.0679 F   0  0  0  0  0  0  0  0  0  0  0  0
    5.3544   -1.8640   -1.1161 F   0  0  0  0  0  0  0  0  0  0  0  0
    5.5110   -1.9263    1.0969 F   0  0  0  0  0  0  0  0  0  0  0  0
   -4.2932    2.2661   -0.3336 O   0  0  0  0  0  0  0  0  0  0  0  0
  1  2  2  0
  2  3  1  0
  3  4  2  0
  4  5  1  0
  5  6  2  0
  5  7  1  0
  7  8  2  0
  8  9  1  0
  9 10  1  0
 10 11  2  0
 11 12  1  0
 12 13  2  0
 13 14  1  0
 14 15  2  0
 14 16  1  0
 16 17  1  0
 16 18  1  0
 16 19  1  0
  4 20  1  0
  6  1  1  0
 15 10  1  0
M  END

