
     RDKit          3D

 23 25  0  0  0  0  0  0  0  0999 V2000
   -3.1674   -0.9823   -1.9944 C   0  0  0  0  0  0  0  0  0  0  0  0
   -4.4976   -0.6237   -2.0057 C   0  0  0  0  0  0  0  0  0  0  0  0
   -4.9529    0.3219   -1.1211 C   0  0  0  0  0  0  0  0  0  0  0  0
   -4.1362    0.9466   -0.2019 C   0  0  0  0  0  0  0  0  0  0  0  0
   -2.7954    0.5898   -0.1855 C   0  0  0  0  0  0  0  0  0  0  0  0
   -2.3340   -0.3527   -1.0649 C   0  0  0  0  0  0  0  0  0  0  0  0
   -1.9236    1.1722    0.7046 C   0  0  0  0  0  0  0  0  0  0  0  0
   -2.4641    2.1188    1.5646 C   0  0  0  0  0  0  0  0  0  0  0  0
   -3.8024    2.4472    1.5184 C   0  0  0  0  0  0  0  0  0  0  0  0
   -4.2717    3.3029    2.3017 O   0  0  0  0  0  0  0  0  0  0  0  0
   -4.5671    1.8529    0.6476 O   0  0  0  0  0  0  0  0  0  0  0  0
   -0.5928    0.8014    0.7029 O   0  0  0  0  0  0  0  0  0  0  0  0
    0.2884    1.4099    1.6239 C   0  0  0  0  0  0  0  0  0  0  0  0
    1.6520    0.7956    1.3691 C   0  0  0  0  0  0  0  0  0  0  0  0
    2.6187    1.1698    2.0628 O   0  0  0  0  0  0  0  0  0  0  0  0
    1.8281   -0.1783    0.3703 N   0  0  0  0  0  0  0  0  0  0  0  0
    3.0349   -0.7965    0.0743 C   0  0  0  0  0  0  0  0  0  0  0  0
    3.0904   -1.5043   -1.1371 C   0  0  0  0  0  0  0  0  0  0  0  0
    4.2243   -2.1724   -1.5325 C   0  0  0  0  0  0  0  0  0  0  0  0
    5.3370   -2.1433   -0.7114 C   0  0  0  0  0  0  0  0  0  0  0  0
    5.3165   -1.4682    0.4671 C   0  0  0  0  0  0  0  0  0  0  0  0
    4.1387   -0.7924    0.8462 C   0  0  0  0  0  0  0  0  0  0  0  0
    6.7897   -3.0064   -1.2313 Cl  0  0  0  0  0  0  0  0  0  0  0  0
  1  2  2  0
  2  3  1  0
  3  4  2  0
  4  5  1  0
  5  6  2  0
  5  7  1  0
  7  8  2  0
  8  9  1  0
  9 10  2  0
  9 11  1  0
  7 12  1  0
 12 13  1  0
 13 14  1  0
 14 15  2  0
 14 16  1  0
 16 17  1  0
 17 18  2  0
 18 19  1  0
 19 20  2  0
 20 21  1  0
 21 22  2  0
 20 23  1  0
  6  1  1  0
 11  4  1  0
 22 17  1  0
M  END

