C1=CC(=C(C=C1Cl)Cl)C2=CC3=C(C(=NN3)N)C(=O)N2
     RDKit          3D

 19 21  0  0  0  0  0  0  0  0999 V2000
   -3.9126   -0.2438   -0.5565 C   0  0  0  0  0  0  0  0  0  0  0  0
   -2.5385   -0.2673   -0.6745 C   0  0  0  0  0  0  0  0  0  0  0  0
   -1.6863    0.3669    0.2408 C   0  0  0  0  0  0  0  0  0  0  0  0
   -2.3266    1.0120    1.2628 C   0  0  0  0  0  0  0  0  0  0  0  0
   -3.7234    1.0431    1.3915 C   0  0  0  0  0  0  0  0  0  0  0  0
   -4.5316    0.4120    0.4782 C   0  0  0  0  0  0  0  0  0  0  0  0
   -6.2816    0.4472    0.6350 Cl  0  0  0  0  0  0  0  0  0  0  0  0
   -1.4630    1.8114    2.5408 Cl  0  0  0  0  0  0  0  0  0  0  0  0
   -0.2470    0.2381    0.0680 C   0  0  0  0  0  0  0  0  0  0  0  0
    0.2857   -0.8255   -0.6760 C   0  0  0  0  0  0  0  0  0  0  0  0
    1.6347   -1.0514   -0.8316 C   0  0  0  0  0  0  0  0  0  0  0  0
    2.5236   -0.1934   -0.2283 C   0  0  0  0  0  0  0  0  0  0  0  0
    3.8006   -0.6245   -0.5275 C   0  0  0  0  0  0  0  0  0  0  0  0
    3.6578   -1.7206   -1.2960 N   0  0  0  0  0  0  0  0  0  0  0  0
    2.3752   -1.9814   -1.4817 N   0  0  0  0  0  0  0  0  0  0  0  0
    5.0190   -0.0041   -0.0899 N   0  0  0  0  0  0  0  0  0  0  0  0
    2.0003    0.8473    0.4994 C   0  0  0  0  0  0  0  0  0  0  0  0
    2.7614    1.6585    1.0699 O   0  0  0  0  0  0  0  0  0  0  0  0
    0.6459    1.0468    0.6354 N   0  0  0  0  0  0  0  0  0  0  0  0
  1  2  2  0
  2  3  1  0
  3  4  2  0
  4  5  1  0
  5  6  2  0
  6  7  1  0
  4  8  1  0
  3  9  1  0
  9 10  2  0
 10 11  1  0
 11 12  2  0
 12 13  1  0
 13 14  2  0
 14 15  1  0
 13 16  1  0
 12 17  1  0
 17 18  2  0
 17 19  1  0
  6  1  1  0
 19  9  1  0
 15 11  1  0
M  END

