
     RDKit          3D

 20 22  0  0  0  0  0  0  0  0999 V2000
    6.9400    0.7909    1.6957 C   0  0  0  0  0  0  0  0  0  0  0  0
    5.6783    0.4088    1.0309 C   0  0  0  0  0  0  0  0  0  0  0  0
    4.4749    0.5302    1.5675 N   0  0  0  0  0  0  0  0  0  0  0  0
    3.5735    0.0958    0.7037 N   0  0  0  0  0  0  0  0  0  0  0  0
    2.1442    0.0129    0.7913 C   0  0  0  0  0  0  0  0  0  0  0  0
    1.5485    0.5053   -0.5415 C   0  0  0  0  0  0  0  0  0  0  0  0
    1.9118   -0.5873   -1.5384 C   0  0  0  0  0  0  0  0  0  0  0  0
    3.3575   -0.8278   -1.4748 N   0  0  0  0  0  0  0  0  0  0  0  0
    4.1760   -0.3205   -0.4217 C   0  0  0  0  0  0  0  0  0  0  0  0
    5.5232   -0.1288   -0.2330 C   0  0  0  0  0  0  0  0  0  0  0  0
    0.0599    0.5462   -0.2665 C   0  0  0  0  0  0  0  0  0  0  0  0
   -0.7347    0.9848   -1.3727 N   0  0  0  0  0  0  0  0  0  0  0  0
   -2.1218    1.0237   -1.0120 C   0  0  0  0  0  0  0  0  0  0  0  0
   -2.6580   -0.3608   -0.8029 C   0  0  0  0  0  0  0  0  0  0  0  0
   -4.0854   -0.3478   -0.4219 C   0  0  0  0  0  0  0  0  0  0  0  0
   -4.6487   -0.2987    0.8274 C   0  0  0  0  0  0  0  0  0  0  0  0
   -5.9874   -0.2981    0.7380 N   0  0  0  0  0  0  0  0  0  0  0  0
   -6.2757   -0.3458   -0.5485 N   0  0  0  0  0  0  0  0  0  0  0  0
   -5.1541   -0.3774   -1.3000 C   0  0  0  0  0  0  0  0  0  0  0  0
   -6.9672   -0.2550    1.7945 C   0  0  0  0  0  0  0  0  0  0  0  0
  1  2  1  0
  2  3  2  0
  3  4  1  0
  4  5  1  0
  5  6  1  0
  6  7  1  0
  7  8  1  0
  8  9  1  0
  9 10  2  0
  6 11  1  0
 11 12  1  0
 12 13  1  0
 13 14  1  0
 14 15  1  0
 15 16  2  0
 16 17  1  0
 17 18  1  0
 18 19  2  0
 17 20  1  0
 10  2  1  0
  9  4  1  0
 19 15  1  0
M  END

