
     RDKit          3D

 10 10  0  0  0  0  0  0  0  0999 V2000
   -0.4929    0.7627   -0.2207 C   0  0  0  0  0  0  0  0  0  0  0  0
   -0.6819    1.9351   -0.8923 N   0  0  0  0  0  0  0  0  0  0  0  0
    0.4737    2.4009   -1.2276 O   0  0  0  0  0  0  0  0  0  0  0  0
    1.4572    1.6383   -0.8375 N   0  0  0  0  0  0  0  0  0  0  0  0
    0.8735    0.5992   -0.2005 C   0  0  0  0  0  0  0  0  0  0  0  0
    1.5475   -0.4807    0.4029 N   0  0  0  0  0  0  0  0  0  0  0  0
    1.5968   -1.6996   -0.1911 O   0  0  0  0  0  0  0  0  0  0  0  0
   -1.5091   -0.1068    0.3144 C   0  0  0  0  0  0  0  0  0  0  0  0
   -1.1868   -1.1927    0.9318 N   0  0  0  0  0  0  0  0  0  0  0  0
   -3.2347    0.2414    0.1716 Cl  0  0  0  0  0  0  0  0  0  0  0  0
  1  2  2  0
  2  3  1  0
  3  4  1  0
  4  5  2  0
  5  6  1  0
  6  7  1  0
  1  8  1  0
  8  9  2  0
  8 10  1  0
  5  1  1  0
M  END

