
     RDKit          3D

 10  9  0  0  0  0  0  0  0  0999 V2000
   -2.5423   -0.7397    0.2409 C   0  0  0  0  0  0  0  0  0  0  0  0
   -1.1163   -1.2311    0.0265 C   0  0  0  0  0  0  0  0  0  0  0  0
   -0.4468   -0.4386   -0.9873 N   0  0  0  0  0  4  0  0  0  0  0  0
    0.5643    0.4270   -0.4107 C   0  0  0  0  0  0  0  0  0  0  0  0
    1.9026   -0.1499   -0.7270 C   0  0  0  0  0  0  0  0  0  0  0  0
    2.9973    0.6381   -0.1962 N   0  0  0  0  0  0  0  0  0  0  0  0
    3.1796    0.9072    1.1668 C   0  0  0  0  0  0  0  0  0  0  0  0
    2.3664    0.4590    2.0417 O   0  0  0  0  0  0  0  0  0  0  0  0
    4.2348    1.6590    1.6069 O   0  0  0  0  0  1  0  0  0  0  0  0
   -2.6027    0.6248    0.6686 N   0  0  0  0  0  4  0  0  0  0  0  0
  1  2  1  0
  2  3  1  0
  3  4  1  0
  4  5  1  0
  5  6  1  0
  6  7  1  0
  7  8  2  0
  7  9  1  0
  1 10  1  0
M  CHG  3   3   1   9  -1  10   1
M  END

