
     RDKit          3D

 24 26  0  0  0  0  0  0  0  0999 V2000
    6.0287    2.0664   -0.2692 C   0  0  0  0  0  0  0  0  0  0  0  0
    6.3924    0.9944    0.5100 C   0  0  0  0  0  0  0  0  0  0  0  0
    5.5122    0.0062    0.8729 C   0  0  0  0  0  0  0  0  0  0  0  0
    4.1755    0.1038    0.4080 C   0  0  0  0  0  0  0  0  0  0  0  0
    3.8359    1.1577   -0.3540 C   0  0  0  0  0  0  0  0  0  0  0  0
    4.7372    2.1972   -0.7386 C   0  0  0  0  0  0  0  0  0  0  0  0
    3.2783   -0.9615    0.8957 C   0  0  0  0  0  0  0  0  0  0  0  0
    1.9285   -0.9406    0.5778 N   0  0  0  0  0  0  0  0  0  0  0  0
    1.3497   -1.8300   -0.2759 C   0  0  0  0  0  0  0  0  0  0  0  0
    0.0104   -1.9057   -0.4970 N   0  0  0  0  0  0  0  0  0  0  0  0
   -0.8167   -1.0575    0.1526 C   0  0  0  0  0  0  0  0  0  0  0  0
   -0.2093   -0.1214    1.0514 C   0  0  0  0  0  0  0  0  0  0  0  0
    1.1247   -0.0863    1.2389 C   0  0  0  0  0  0  0  0  0  0  0  0
    1.6458    0.7699    2.0460 O   0  0  0  0  0  0  0  0  0  0  0  0
   -2.1148   -1.0212    0.0084 O   0  0  0  0  0  0  0  0  0  0  0  0
   -3.2289   -1.5191   -0.5641 C   0  0  0  0  0  0  0  0  0  0  0  0
   -4.3803   -0.6080   -0.2284 C   0  0  0  0  0  0  0  0  0  0  0  0
   -4.8764    0.1859   -1.2620 C   0  0  0  0  0  0  0  0  0  0  0  0
   -5.9823    1.0296   -1.0968 C   0  0  0  0  0  0  0  0  0  0  0  0
   -6.5894    1.0623    0.1297 C   0  0  0  0  0  0  0  0  0  0  0  0
   -6.0915    0.2713    1.1552 C   0  0  0  0  0  0  0  0  0  0  0  0
   -4.9747   -0.5744    0.9920 C   0  0  0  0  0  0  0  0  0  0  0  0
   -7.9724    2.1328    0.3684 Cl  0  0  0  0  0  0  0  0  0  0  0  0
   -3.9729    0.1432   -2.7914 Cl  0  0  0  0  0  0  0  0  0  0  0  0
  1  2  2  0
  2  3  1  0
  3  4  2  0
  4  5  1  0
  5  6  2  0
  4  7  1  0
  7  8  1  0
  8  9  1  0
  9 10  2  0
 10 11  1  0
 11 12  2  0
 12 13  1  0
 13 14  2  0
 11 15  1  0
 15 16  1  0
 16 17  1  0
 17 18  2  0
 18 19  1  0
 19 20  2  0
 20 21  1  0
 21 22  2  0
 20 23  1  0
 18 24  1  0
  6  1  1  0
 13  8  1  0
 22 17  1  0
M  END

