
     RDKit          3D

 16 17  0  0  0  0  0  0  0  0999 V2000
   -2.1078   -2.3451   -0.0035 C   0  0  0  0  0  0  0  0  0  0  0  0
   -2.6341   -0.9522    0.1847 C   0  0  0  0  0  0  0  0  0  0  0  0
   -1.8733    0.1848    0.3875 C   0  0  0  0  0  0  0  0  0  0  0  0
   -2.7293    1.2663    0.5151 C   0  0  0  0  0  0  0  0  0  0  0  0
   -3.9682    0.7615    0.3877 N   0  0  0  0  0  0  0  0  0  0  0  0
   -3.9118   -0.5501    0.1924 N   0  0  0  0  0  0  0  0  0  0  0  0
   -2.3361    2.6950    0.7466 C   0  0  0  0  0  0  0  0  0  0  0  0
   -0.4686    0.2491    0.4553 N   0  0  0  0  0  0  0  0  0  0  0  0
    0.3029   -0.1573   -0.4868 C   0  0  0  0  0  0  0  0  0  0  0  0
    1.7344   -0.0436   -0.3110 C   0  0  0  0  0  0  0  0  0  0  0  0
    2.2303    0.5007    0.8696 C   0  0  0  0  0  0  0  0  0  0  0  0
    3.5932    0.5919    0.9991 C   0  0  0  0  0  0  0  0  0  0  0  0
    4.4252    0.1582   -0.0069 C   0  0  0  0  0  0  0  0  0  0  0  0
    3.9303   -0.3741   -1.1607 C   0  0  0  0  0  0  0  0  0  0  0  0
    2.5684   -0.4820   -1.3276 C   0  0  0  0  0  0  0  0  0  0  0  0
    2.1059   -1.0264   -2.5099 O   0  0  0  0  0  0  0  0  0  0  0  0
  1  2  1  0
  2  3  2  0
  3  4  1  0
  4  5  2  0
  5  6  1  0
  4  7  1  0
  3  8  1  0
  8  9  2  3
  9 10  1  0
 10 11  2  0
 11 12  1  0
 12 13  2  0
 13 14  1  0
 14 15  2  0
 15 16  1  0
  6  2  1  0
 15 10  1  0
M  END

