
     RDKit          3D

 12 12  0  0  0  0  0  0  0  0999 V2000
   -1.5803   -0.5902    0.9623 C   0  0  0  0  0  0  0  0  0  0  0  0
   -2.9940   -0.2980    0.5448 C   0  0  0  0  0  0  0  0  0  0  0  0
   -3.2338    1.0729    0.4187 O   0  0  0  0  0  0  0  0  0  0  0  0
   -2.5131    1.4799   -0.7237 C   0  0  0  0  0  0  0  0  0  0  0  0
   -1.0486    1.5289   -0.2727 C   0  0  0  0  0  0  0  0  0  0  0  0
   -0.6277    0.2323    0.2188 N   0  0  0  0  0  0  0  0  0  0  0  0
    0.6787   -0.2916    0.0152 C   0  0  0  0  0  0  0  0  0  0  0  0
    1.7591    0.3812    0.2059 N   0  0  0  0  0  0  0  0  0  0  0  0
    3.0262   -0.2295   -0.0249 C   0  0  0  0  0  0  0  0  0  0  0  0
    3.1669   -1.5073   -0.0547 N   0  0  0  0  0  0  0  0  0  0  0  0
    4.1712    0.5803   -0.2286 N   0  0  0  0  0  0  0  0  0  0  0  0
    0.8115   -1.6381   -0.4254 N   0  0  0  0  0  0  0  0  0  0  0  0
  1  2  1  0
  2  3  1  0
  3  4  1  0
  4  5  1  0
  5  6  1  0
  6  7  1  0
  7  8  2  0
  8  9  1  0
  9 10  2  0
  9 11  1  0
  7 12  1  0
  6  1  1  0
M  END

