
     RDKit          3D

 13 12  0  0  0  0  0  0  0  0999 V2000
   -2.7416    2.8439   -0.0605 C   0  0  0  0  0  0  0  0  0  0  0  0
   -2.8157    1.4011    0.0826 N   0  0  0  0  0  0  0  0  0  0  0  0
   -1.6511    0.7511   -0.4992 C   0  0  0  0  0  0  0  0  0  0  0  0
   -1.8342   -0.7337   -0.3009 C   0  0  0  0  0  0  0  0  0  0  0  0
   -1.9220   -0.9939    1.1747 C   0  0  0  0  0  0  0  0  0  0  0  0
   -0.8512   -1.5906   -1.0093 C   0  0  0  0  0  0  0  0  0  0  0  0
    0.5811   -1.4157   -0.6625 C   0  0  0  0  0  0  0  0  0  0  0  0
    1.3786   -2.4221   -1.5299 C   0  0  0  0  0  0  0  0  0  0  0  0
    1.1202   -0.1558   -1.0087 O   0  0  0  0  0  0  0  0  0  0  0  0
    1.9681    0.5085   -0.1699 N   0  0  0  0  0  0  0  0  0  0  0  0
    2.7660   -0.0451    0.6664 C   0  0  0  0  0  0  0  0  0  0  0  0
    3.6143    0.7211    1.5014 N   0  0  0  0  0  0  0  0  0  0  0  0
    3.8829    2.0395    1.1142 N   0  0  0  0  0  0  0  0  0  0  0  0
  1  2  1  0
  2  3  1  0
  3  4  1  0
  4  5  1  0
  4  6  1  0
  6  7  1  0
  7  8  1  0
  7  9  1  0
  9 10  1  0
 10 11  2  3
 11 12  1  0
 12 13  1  0
M  END

