C1C2=C(CS1(=O)=O)C(=CC=C2)N
     RDKit          3D

 12 13  0  0  0  0  0  0  0  0999 V2000
   -1.9005    0.9591    0.4469 C   0  0  0  0  0  0  0  0  0  0  0  0
   -0.4348    0.8437    0.3029 C   0  0  0  0  0  0  0  0  0  0  0  0
    0.0422   -0.3740    0.0236 C   0  0  0  0  0  0  0  0  0  0  0  0
   -0.9696   -1.4479   -0.1096 C   0  0  0  0  0  0  0  0  0  0  0  0
   -2.4499   -0.4864   -0.4314 S   0  0  0  0  0  6  0  0  0  0  0  0
   -3.6534   -1.0980    0.1731 O   0  0  0  0  0  0  0  0  0  0  0  0
   -2.5865   -0.1869   -1.8843 O   0  0  0  0  0  0  0  0  0  0  0  0
    1.4202   -0.5374   -0.1201 C   0  0  0  0  0  0  0  0  0  0  0  0
    2.3080    0.5074    0.0147 C   0  0  0  0  0  0  0  0  0  0  0  0
    1.7986    1.7562    0.3027 C   0  0  0  0  0  0  0  0  0  0  0  0
    0.4501    1.9232    0.4448 C   0  0  0  0  0  0  0  0  0  0  0  0
    1.9908   -1.8046   -0.4167 N   0  0  0  0  0  0  0  0  0  0  0  0
  1  2  1  0
  2  3  2  0
  3  4  1  0
  4  5  1  0
  5  6  2  0
  5  7  2  0
  3  8  1  0
  8  9  2  0
  9 10  1  0
 10 11  2  0
  8 12  1  0
  5  1  1  0
 11  2  1  0
M  END

