
     RDKit          3D

 15 16  0  0  0  0  0  0  0  0999 V2000
   -0.0211   -1.3338    1.0344 C   0  0  0  0  0  0  0  0  0  0  0  0
   -1.3455   -1.2267    1.2914 C   0  0  0  0  0  0  0  0  0  0  0  0
   -2.1447   -0.2333    0.6993 C   0  0  0  0  0  0  0  0  0  0  0  0
   -1.6050    0.6774   -0.1732 C   0  0  0  0  0  0  0  0  0  0  0  0
   -0.2197    0.5351   -0.4177 C   0  0  0  0  0  0  0  0  0  0  0  0
    0.5478   -0.4348    0.1637 C   0  0  0  0  0  0  0  0  0  0  0  0
    1.9879   -0.5309   -0.1321 C   0  0  0  0  0  0  0  0  0  0  0  0
    2.8469   -1.4129    0.3548 N   0  0  0  0  0  0  0  0  0  0  0  0
    4.0727   -1.1832   -0.1476 C   0  0  0  0  0  0  0  0  0  0  0  0
    3.9182   -0.0884   -0.9883 C   0  0  0  0  0  0  0  0  0  0  0  0
    2.6532    0.2482   -0.9313 O   0  0  0  0  0  0  0  0  0  0  0  0
   -2.3327    1.7326   -0.8336 C   0  0  0  0  0  0  0  0  0  0  0  0
   -1.6989    2.5056   -1.6198 O   0  0  0  0  0  0  0  0  0  0  0  0
   -3.6611    1.9488   -0.6634 O   0  0  0  0  0  0  0  0  0  0  0  0
   -3.4795   -0.2058    1.0230 O   0  0  0  0  0  0  0  0  0  0  0  0
  1  2  2  0
  2  3  1  0
  3  4  2  0
  4  5  1  0
  5  6  2  0
  6  7  1  0
  7  8  2  0
  8  9  1  0
  9 10  2  0
 10 11  1  0
  4 12  1  0
 12 13  2  0
 12 14  1  0
  3 15  1  0
  6  1  1  0
 11  7  1  0
M  END

