CC(COC1(CCCO1)C#N)=NO
     RDKit          3D

 13 13  0  0  0  0  0  0  0  0999 V2000
   -2.6172    0.9727    1.1208 C   0  0  0  0  0  0  0  0  0  0  0  0
   -2.0135    0.3449   -0.0782 C   0  0  0  0  0  0  0  0  0  0  0  0
   -0.8373    0.9331   -0.7600 C   0  0  0  0  0  0  0  0  0  0  0  0
    0.3190    0.9503   -0.0546 O   0  0  0  0  0  0  0  0  0  0  0  0
    0.8917   -0.2082    0.3393 C   0  0  0  0  0  0  0  0  0  0  0  0
    1.5199   -1.0142   -0.7725 C   0  0  0  0  0  0  0  0  0  0  0  0
    2.6476   -0.1058   -1.1978 C   0  0  0  0  0  0  0  0  0  0  0  0
    2.9654    0.5993    0.1103 C   0  0  0  0  0  0  0  0  0  0  0  0
    2.0700    0.1543    1.0470 O   0  0  0  0  0  0  0  0  0  0  0  0
    0.0560   -1.0534    1.1488 C   0  0  0  0  0  0  0  0  0  0  0  0
   -0.6068   -1.7594    1.8066 N   0  0  0  0  0  0  0  0  0  0  0  0
   -2.5347   -0.7389   -0.5295 N   0  0  0  0  0  0  0  0  0  0  0  0
   -3.6034   -1.3736   -0.0035 O   0  0  0  0  0  0  0  0  0  0  0  0
  1  2  1  0
  2  3  1  0
  3  4  1  0
  4  5  1  0
  5  6  1  0
  6  7  1  0
  7  8  1  0
  8  9  1  0
  5 10  1  0
 10 11  3  0
  2 12  2  3
 12 13  1  0
  9  5  1  0
M  END

