
     RDKit          3D

 23 25  0  0  0  0  0  0  0  0999 V2000
   -4.0183    2.0958   -1.0663 C   0  0  0  0  0  0  0  0  0  0  0  0
   -3.1422    1.0688   -0.6411 O   0  0  0  0  0  0  0  0  0  0  0  0
   -1.8025    1.1864   -0.5179 C   0  0  0  0  0  0  0  0  0  0  0  0
   -1.3553    2.3610   -0.8313 O   0  0  0  0  0  0  0  0  0  0  0  0
   -0.8215    0.2156   -0.1079 C   0  0  0  0  0  0  0  0  0  0  0  0
    0.5287    0.6187   -0.0914 C   0  0  0  0  0  0  0  0  0  0  0  0
    1.5441   -0.2095    0.1644 N   0  0  0  0  0  0  0  0  0  0  0  0
    1.2302   -1.4927    0.4163 C   0  0  0  0  0  0  0  0  0  0  0  0
    2.1824   -2.3094    0.6612 O   0  0  0  0  0  0  0  0  0  0  0  0
   -0.0238   -1.9766    0.4279 C   0  0  0  0  0  0  0  0  0  0  0  0
   -1.0957   -1.0730    0.1557 C   0  0  0  0  0  0  0  0  0  0  0  0
   -2.4338   -1.5890    0.3814 C   0  0  0  0  0  0  0  0  0  0  0  0
   -3.5294   -1.0255    0.9511 C   0  0  0  0  0  0  0  0  0  0  0  0
   -4.5432   -1.9916    0.9165 C   0  0  0  0  0  0  0  0  0  0  0  0
   -4.0027   -3.1028    0.3240 C   0  0  0  0  0  0  0  0  0  0  0  0
   -2.7711   -2.8399    0.0226 O   0  0  0  0  0  0  0  0  0  0  0  0
    2.9078    0.2314    0.1738 C   0  0  0  0  0  0  0  0  0  0  0  0
    3.2772    1.3953    0.8068 C   0  0  0  0  0  0  0  0  0  0  0  0
    4.6142    1.8065    0.8033 C   0  0  0  0  0  0  0  0  0  0  0  0
    5.5873    1.0447    0.1603 C   0  0  0  0  0  0  0  0  0  0  0  0
    5.2130   -0.1172   -0.4706 C   0  0  0  0  0  0  0  0  0  0  0  0
    3.8796   -0.5096   -0.4565 C   0  0  0  0  0  0  0  0  0  0  0  0
    0.8572    1.9572   -0.3538 O   0  0  0  0  0  0  0  0  0  0  0  0
  1  2  1  0
  2  3  1  0
  3  4  2  0
  3  5  1  0
  5  6  2  0
  6  7  1  0
  7  8  1  0
  8  9  2  0
  8 10  1  0
 10 11  2  0
 11 12  1  0
 12 13  2  0
 13 14  1  0
 14 15  2  0
 15 16  1  0
  7 17  1  0
 17 18  2  0
 18 19  1  0
 19 20  2  0
 20 21  1  0
 21 22  2  0
  6 23  1  0
 11  5  1  0
 16 12  1  0
 22 17  1  0
M  END

