CC1=CC(=O)NC(=O)N1C2=CC=C(C=C2)NC(=O)OC3CCCCC3
     RDKit          3D

 25 27  0  0  0  0  0  0  0  0999 V2000
    4.9132   -1.9006   -0.8003 C   0  0  0  0  0  0  0  0  0  0  0  0
    5.5911   -0.7318   -0.2101 C   0  0  0  0  0  0  0  0  0  0  0  0
    6.9640   -0.7862   -0.0590 C   0  0  0  0  0  0  0  0  0  0  0  0
    7.6101    0.2877    0.4862 C   0  0  0  0  0  0  0  0  0  0  0  0
    8.8633    0.3009    0.6513 O   0  0  0  0  0  0  0  0  0  0  0  0
    6.8789    1.3543    0.8531 N   0  0  0  0  0  0  0  0  0  0  0  0
    5.5339    1.3775    0.6921 C   0  0  0  0  0  0  0  0  0  0  0  0
    4.9307    2.4176    1.0639 O   0  0  0  0  0  0  0  0  0  0  0  0
    4.8604    0.3413    0.1596 N   0  0  0  0  0  0  0  0  0  0  0  0
    3.4480    0.3890    0.0006 C   0  0  0  0  0  0  0  0  0  0  0  0
    2.5703   -0.1505    0.9046 C   0  0  0  0  0  0  0  0  0  0  0  0
    1.1791   -0.0765    0.7004 C   0  0  0  0  0  0  0  0  0  0  0  0
    0.6313    0.5282   -0.3941 C   0  0  0  0  0  0  0  0  0  0  0  0
    1.5451    1.0799   -1.3176 C   0  0  0  0  0  0  0  0  0  0  0  0
    2.8977    0.9996   -1.1045 C   0  0  0  0  0  0  0  0  0  0  0  0
   -0.7558    0.6323   -0.6513 N   0  0  0  0  0  0  0  0  0  0  0  0
   -1.7539    0.1235    0.1909 C   0  0  0  0  0  0  0  0  0  0  0  0
   -1.5914   -0.4865    1.2731 O   0  0  0  0  0  0  0  0  0  0  0  0
   -3.1149    0.2757   -0.1496 O   0  0  0  0  0  0  0  0  0  0  0  0
   -4.1650   -0.2048    0.6401 C   0  0  0  0  0  0  0  0  0  0  0  0
   -4.8714   -1.2897   -0.1450 C   0  0  0  0  0  0  0  0  0  0  0  0
   -5.9556   -0.7374   -1.0397 C   0  0  0  0  0  0  0  0  0  0  0  0
   -6.9370    0.1257   -0.2905 C   0  0  0  0  0  0  0  0  0  0  0  0
   -6.5226    0.3505    1.1455 C   0  0  0  0  0  0  0  0  0  0  0  0
   -5.0972    0.8591    1.1216 C   0  0  0  0  0  0  0  0  0  0  0  0
  1  2  1  0
  2  3  2  0
  3  4  1  0
  4  5  2  0
  4  6  1  0
  6  7  1  0
  7  8  2  0
  7  9  1  0
  9 10  1  0
 10 11  2  0
 11 12  1  0
 12 13  2  0
 13 14  1  0
 14 15  2  0
 13 16  1  0
 16 17  1  0
 17 18  2  0
 17 19  1  0
 19 20  1  0
 20 21  1  0
 21 22  1  0
 22 23  1  0
 23 24  1  0
 24 25  1  0
  9  2  1  0
 15 10  1  0
 25 20  1  0
M  END

