
     RDKit          3D

 11 10  0  0  0  0  0  0  0  0999 V2000
   -3.2011    1.9698    1.4453 F   0  0  0  0  0  0  0  0  0  0  0  0
   -2.6970    1.0301    0.6249 C   0  0  0  0  0  0  0  0  0  0  0  0
   -3.4003    0.5956   -0.4074 C   0  0  0  0  0  0  0  0  0  0  0  0
   -1.3420    0.4707    0.8720 C   0  0  0  0  0  0  0  0  0  0  0  0
   -1.0202   -0.5007   -0.1152 O   0  0  0  0  0  0  0  0  0  0  0  0
    0.1883   -1.1797   -0.1195 C   0  0  0  0  0  0  0  0  0  0  0  0
    0.1803   -2.4827   -0.0899 C   0  0  0  0  0  0  0  0  0  0  0  0
    1.4690   -0.4937   -0.1559 C   0  0  0  0  0  0  0  0  0  0  0  0
    1.4900    0.8109   -0.1858 N   0  0  0  0  0  0  0  0  0  0  0  0
    2.6584    1.5387   -0.2213 N   0  0  0  0  0  0  0  0  0  0  0  0
    3.7767    1.1717    0.2964 C   0  0  0  0  0  0  0  0  0  0  0  0
  1  2  1  0
  2  3  2  0
  2  4  1  0
  4  5  1  0
  5  6  1  0
  6  7  2  0
  6  8  1  0
  8  9  2  3
  9 10  1  0
 10 11  2  0
M  END

