
     RDKit          3D

 23 24  0  0  0  0  0  0  0  0999 V2000
   -5.9790   -1.5200    1.0464 C   0  0  0  0  0  0  0  0  0  0  0  0
   -5.5497   -0.3581    0.1688 C   0  0  0  0  0  0  0  0  0  0  0  0
   -5.7548    0.9411    0.8849 C   0  0  0  0  0  0  0  0  0  0  0  0
   -6.4872   -0.3641   -1.0330 C   0  0  0  0  0  0  0  0  0  0  0  0
   -4.1537   -0.5354   -0.3675 C   0  0  0  0  0  0  0  0  0  0  0  0
   -3.1199   -0.6461    0.7290 C   0  0  0  0  0  0  0  0  0  0  0  0
   -1.7650   -0.7963    0.0885 C   0  0  0  0  0  0  0  0  0  0  0  0
   -1.4889    0.2480   -0.9540 C   0  0  0  0  0  0  0  0  0  0  0  0
   -2.5837    1.2880   -0.8892 C   0  0  0  0  0  0  0  0  0  0  0  0
   -3.8784    0.6149   -1.3069 C   0  0  0  0  0  0  0  0  0  0  0  0
   -0.1751    0.9270   -0.7569 C   0  0  0  0  0  0  0  0  0  0  0  0
   -0.1287    2.1134   -0.5814 O   0  0  0  0  0  0  0  0  0  0  0  0
    1.0838    0.1414   -0.7764 C   0  0  0  0  0  0  0  0  0  0  0  0
    2.2202    1.0699   -0.5564 C   0  0  0  0  0  0  0  0  0  0  0  0
    2.0446    2.2624   -0.3965 O   0  0  0  0  0  0  0  0  0  0  0  0
    3.5890    0.4668   -0.5412 C   0  0  0  0  0  0  0  0  0  0  0  0
    4.6507    1.5047   -0.3110 C   0  0  0  0  0  0  0  0  0  0  0  0
    5.9664    0.7424   -0.4865 C   0  0  0  0  0  0  0  0  0  0  0  0
    6.0918   -0.1715    0.6965 C   0  0  0  0  0  0  0  0  0  0  0  0
    4.9362   -1.0541    0.9489 C   0  0  0  0  0  0  0  0  0  0  0  0
    3.6167   -0.6374    0.4610 C   0  0  0  0  0  0  0  0  0  0  0  0
    7.2270   -0.9582    0.4999 O   0  0  0  0  0  0  0  0  0  0  0  0
    8.2253   -0.6930    1.4326 C   0  0  0  0  0  0  0  0  0  0  0  0
  1  2  1  0
  2  3  1  0
  2  4  1  0
  2  5  1  0
  5  6  1  0
  6  7  1  0
  7  8  1  0
  8  9  1  0
  9 10  1  0
  8 11  1  0
 11 12  2  0
 11 13  1  0
 13 14  1  0
 14 15  2  0
 14 16  1  0
 16 17  1  0
 17 18  1  0
 18 19  1  0
 19 20  1  0
 20 21  1  0
 19 22  1  0
 22 23  1  0
 10  5  1  0
 21 16  1  0
M  END

