
     RDKit          3D

 21 20  0  0  0  0  0  0  0  0999 V2000
   -1.1526    2.0528   -1.6214 C   0  0  0  0  0  0  0  0  0  0  0  0
   -0.0563    1.3427   -1.0185 C   0  0  0  0  0  0  0  0  0  0  0  0
   -0.1051    0.0269   -0.3811 C   0  0  0  0  0  0  0  0  0  0  0  0
   -0.5083   -1.0325   -1.3855 C   0  0  0  0  0  0  0  0  0  0  0  0
   -1.7484   -1.0565   -2.0951 C   0  0  0  0  0  0  0  0  0  0  0  0
   -1.8759   -2.3581   -2.9689 C   0  0  0  0  0  0  0  0  0  0  0  0
   -1.8011   -3.8265   -1.9633 S   0  0  0  0  0  0  0  0  0  0  0  0
   -1.1858    0.0668    0.7178 C   0  0  0  0  0  0  0  0  0  0  0  0
   -1.3238   -1.1990    1.4723 C   0  0  0  0  0  0  0  0  0  0  0  0
   -2.4184   -1.0955    2.5488 C   0  0  0  0  0  0  0  0  0  0  0  0
   -4.0176   -0.7221    1.7979 S   0  0  0  0  0  0  0  0  0  0  0  0
    1.1778   -0.4524    0.1815 C   0  0  0  0  0  0  0  0  0  0  0  0
    2.0888   -0.0020    1.1459 C   0  0  0  0  0  0  0  0  0  0  0  0
    3.2203   -1.1318    1.0871 C   0  0  0  0  0  0  0  0  0  0  0  0
    3.7226   -1.1394   -0.2049 O   0  0  0  0  0  0  0  0  0  0  0  0
    2.9686    1.2074    0.8264 C   0  0  0  0  0  0  0  0  0  0  0  0
    3.7714    1.0167   -0.2791 O   0  0  0  0  0  0  0  0  0  0  0  0
    1.8720    0.0440    2.6187 C   0  0  0  0  0  0  0  0  0  0  0  0
    0.8493    0.8285    3.0941 O   0  0  0  0  0  0  0  0  0  0  0  0
   -0.5486    3.4339   -2.0866 C   0  0  0  0  0  0  0  0  0  0  0  0
   -1.8388    4.4037   -2.8562 S   0  0  0  0  0  0  0  0  0  0  0  0
  1  2  1  0
  2  3  1  0
  3  4  1  0
  4  5  1  0
  5  6  1  0
  6  7  1  0
  3  8  1  0
  8  9  1  0
  9 10  1  0
 10 11  1  0
  3 12  1  0
 12 13  1  0
 13 14  1  0
 14 15  1  0
 13 16  1  0
 16 17  1  0
 13 18  1  0
 18 19  1  0
  1 20  1  0
 20 21  1  0
M  END

