C1=NC(=NO1)N=NC2=NOC=N2
     RDKit          3D

 12 13  0  0  0  0  0  0  0  0999 V2000
    2.1634    1.5429   -0.1701 C   0  0  0  0  0  0  0  0  0  0  0  0
    1.2898    0.7814    0.5539 N   0  0  0  0  0  0  0  0  0  0  0  0
    1.6347   -0.5006    0.4067 C   0  0  0  0  0  0  0  0  0  0  0  0
    2.7057   -0.5142   -0.3978 N   0  0  0  0  0  0  0  0  0  0  0  0
    3.0185    0.7122   -0.7406 O   0  0  0  0  0  0  0  0  0  0  0  0
    1.0457   -1.6592    0.9513 N   0  0  0  0  0  0  0  0  0  0  0  0
   -0.1744   -1.9032    1.0257 N   0  0  0  0  0  0  0  0  0  0  0  0
   -1.2289   -1.0928    0.5909 C   0  0  0  0  0  0  0  0  0  0  0  0
   -2.3902   -1.5960    0.0874 N   0  0  0  0  0  0  0  0  0  0  0  0
   -3.1779   -0.6136   -0.2307 O   0  0  0  0  0  0  0  0  0  0  0  0
   -2.5936    0.5073    0.0380 C   0  0  0  0  0  0  0  0  0  0  0  0
   -1.3750    0.2363    0.5522 N   0  0  0  0  0  0  0  0  0  0  0  0
  1  2  2  0
  2  3  1  0
  3  4  2  0
  4  5  1  0
  3  6  1  0
  6  7  2  3
  7  8  1  0
  8  9  2  0
  9 10  1  0
 10 11  1  0
 11 12  2  0
  5  1  1  0
 12  8  1  0
M  END

