CC([NH2+]CC1COC1)C#CCO
     RDKit          3D

 12 12  0  0  0  0  0  0  0  0999 V2000
    0.8353    0.4426   -2.4434 C   0  0  0  0  0  0  0  0  0  0  0  0
    0.7161    0.6021   -0.9358 C   0  0  0  0  0  0  0  0  0  0  0  0
   -0.2525   -0.3239   -0.3758 N   0  0  0  0  0  4  0  0  0  0  0  0
   -1.0543    0.3175    0.6069 C   0  0  0  0  0  0  0  0  0  0  0  0
   -2.4889    0.4978    0.2431 C   0  0  0  0  0  0  0  0  0  0  0  0
   -3.2909   -0.7217   -0.0444 C   0  0  0  0  0  0  0  0  0  0  0  0
   -3.3645   -0.9529    1.3475 O   0  0  0  0  0  0  0  0  0  0  0  0
   -3.3782    0.4490    1.4924 C   0  0  0  0  0  0  0  0  0  0  0  0
    2.0057    0.3061   -0.2841 C   0  0  0  0  0  0  0  0  0  0  0  0
    3.0697    0.0553    0.2320 C   0  0  0  0  0  0  0  0  0  0  0  0
    4.3718   -0.2700    0.8457 C   0  0  0  0  0  0  0  0  0  0  0  0
    4.2054   -1.4680    1.5421 O   0  0  0  0  0  0  0  0  0  0  0  0
  1  2  1  0
  2  3  1  0
  3  4  1  0
  4  5  1  0
  5  6  1  0
  6  7  1  0
  7  8  1  0
  2  9  1  0
  9 10  3  0
 10 11  1  0
 11 12  1  0
  8  5  1  0
M  CHG  1   3   1
M  END

