
     RDKit          3D

 19 20  0  0  0  0  0  0  0  0999 V2000
    5.5808   -0.2349    0.1176 S   0  0  0  0  0  6  0  0  0  0  0  0
    6.0319    0.2507    1.4525 O   0  0  0  0  0  0  0  0  0  0  0  0
    6.1278   -1.6049   -0.1733 O   0  0  0  0  0  0  0  0  0  0  0  0
    3.8378   -0.2915   -0.0296 C   0  0  0  0  0  0  0  0  0  0  0  0
    3.2340   -1.3094   -0.7711 C   0  0  0  0  0  0  0  0  0  0  0  0
    1.8458   -1.3281   -0.8652 C   0  0  0  0  0  0  0  0  0  0  0  0
    1.0754   -0.3890   -0.2574 C   0  0  0  0  0  0  0  0  0  0  0  0
    1.6920    0.6073    0.4707 C   0  0  0  0  0  0  0  0  0  0  0  0
    3.0646    0.6632    0.5892 C   0  0  0  0  0  0  0  0  0  0  0  0
   -0.3910   -0.4343   -0.3751 C   0  0  0  0  0  0  0  0  0  0  0  0
   -0.9158   -1.3535   -1.0610 O   0  0  0  0  0  0  0  0  0  0  0  0
   -1.2171    0.4895    0.2356 O   0  0  0  0  0  0  0  0  0  0  0  0
   -2.5886    0.4873    0.1526 N   0  0  0  0  0  0  0  0  0  0  0  0
   -3.4299   -0.6361    0.3880 C   0  0  0  0  0  0  0  0  0  0  0  0
   -3.0973   -1.8351    0.2958 O   0  0  0  0  0  0  0  0  0  0  0  0
   -4.7621   -0.0484    0.7586 C   0  0  0  0  0  0  0  0  0  0  0  0
   -4.8070    1.1010   -0.2518 C   0  0  0  0  0  0  0  0  0  0  0  0
   -3.4157    1.6119   -0.1731 C   0  0  0  0  0  0  0  0  0  0  0  0
   -3.0549    2.8042   -0.3591 O   0  0  0  0  0  0  0  0  0  0  0  0
  1  2  2  0
  1  3  2  0
  1  4  1  0
  4  5  2  0
  5  6  1  0
  6  7  2  0
  7  8  1  0
  8  9  2  0
  7 10  1  0
 10 11  2  0
 10 12  1  0
 12 13  1  0
 13 14  1  0
 14 15  2  0
 14 16  1  0
 16 17  1  0
 17 18  1  0
 18 19  2  0
  9  4  1  0
 18 13  1  0
M  END

