CC1=NC=C(S1)C2=NC(=CC(=O)N2)C3CCNCC3
     RDKit          3D

 19 21  0  0  0  0  0  0  0  0999 V2000
    5.9554   -1.8790   -1.1940 C   0  0  0  0  0  0  0  0  0  0  0  0
    4.5748   -1.3795   -0.8366 C   0  0  0  0  0  0  0  0  0  0  0  0
    3.4202   -1.6473   -1.4079 N   0  0  0  0  0  0  0  0  0  0  0  0
    2.3273   -1.1192   -0.9566 C   0  0  0  0  0  0  0  0  0  0  0  0
    2.4269   -0.2835    0.1243 C   0  0  0  0  0  0  0  0  0  0  0  0
    4.1044   -0.3094    0.4276 S   0  0  0  0  0  0  0  0  0  0  0  0
    1.3416    0.4233    0.8041 C   0  0  0  0  0  0  0  0  0  0  0  0
    0.0679    0.3251    0.4243 N   0  0  0  0  0  0  0  0  0  0  0  0
   -0.9310    0.9741    1.0480 C   0  0  0  0  0  0  0  0  0  0  0  0
   -0.6425    1.7768    2.1248 C   0  0  0  0  0  0  0  0  0  0  0  0
    0.6765    1.8969    2.5415 C   0  0  0  0  0  0  0  0  0  0  0  0
    0.9644    2.6343    3.5354 O   0  0  0  0  0  0  0  0  0  0  0  0
    1.6043    1.2189    1.8667 N   0  0  0  0  0  0  0  0  0  0  0  0
   -2.3378    0.8542    0.6139 C   0  0  0  0  0  0  0  0  0  0  0  0
   -2.5377    1.3621   -0.7982 C   0  0  0  0  0  0  0  0  0  0  0  0
   -3.7332    0.6659   -1.4113 C   0  0  0  0  0  0  0  0  0  0  0  0
   -3.5280   -0.7619   -1.5464 N   0  0  0  0  0  0  0  0  0  0  0  0
   -2.4519   -1.2204   -0.6872 C   0  0  0  0  0  0  0  0  0  0  0  0
   -2.7059   -0.6123    0.6845 C   0  0  0  0  0  0  0  0  0  0  0  0
  1  2  1  0
  2  3  2  0
  3  4  1  0
  4  5  2  0
  5  6  1  0
  5  7  1  0
  7  8  2  0
  8  9  1  0
  9 10  2  0
 10 11  1  0
 11 12  2  0
 11 13  1  0
  9 14  1  0
 14 15  1  0
 15 16  1  0
 16 17  1  0
 17 18  1  0
 18 19  1  0
  6  2  1  0
 13  7  1  0
 19 14  1  0
M  END

