
     RDKit          3D

 13 12  0  0  0  0  0  0  0  0999 V2000
   -1.7246    2.0310   -0.7440 C   0  0  0  0  0  0  0  0  0  0  0  0
   -1.6007    0.5819   -0.9936 C   0  0  0  0  0  0  0  0  0  0  0  0
   -2.7135    0.1234   -1.7552 O   0  0  0  0  0  0  0  0  0  0  0  0
   -1.4417   -0.3095    0.1819 C   0  0  0  0  0  0  0  0  0  0  0  0
   -1.3144   -1.7516   -0.2498 C   0  0  0  0  0  0  0  0  0  0  0  0
   -2.8156   -0.2776    0.9403 C   0  0  0  0  0  0  0  0  0  0  0  0
   -0.4449    0.0745    1.2072 C   0  0  0  0  0  0  0  0  0  0  0  0
    0.9045    0.2357    0.8579 N   0  0  0  0  0  0  0  0  0  0  0  0
    1.6608   -0.8900    0.4490 C   0  0  0  0  0  0  0  0  0  0  0  0
    3.1348   -0.6908    0.4299 C   0  0  0  0  0  0  0  0  0  0  0  0
    3.6301    0.4023   -0.3971 C   0  0  0  0  0  0  0  0  0  0  0  0
    4.4690    0.2315   -1.3406 N   0  0  0  0  0  0  0  0  0  0  0  0
    3.1929    1.7099   -0.1799 O   0  0  0  0  0  0  0  0  0  0  0  0
  1  2  1  0
  2  3  1  0
  2  4  1  0
  4  5  1  0
  4  6  1  0
  4  7  1  0
  7  8  1  0
  8  9  1  0
  9 10  1  0
 10 11  1  0
 11 12  2  0
 11 13  1  0
M  END

