CN1C=C(C(=N1)I)C#N
     RDKit          3D

  9  9  0  0  0  0  0  0  0  0999 V2000
    2.2770   -0.0792    0.1199 C   0  0  0  0  0  0  0  0  0  0  0  0
    0.8516    0.1963    0.1013 N   0  0  0  0  0  0  0  0  0  0  0  0
   -0.0898   -0.7181   -0.2001 C   0  0  0  0  0  0  0  0  0  0  0  0
   -1.3477   -0.1372   -0.1275 C   0  0  0  0  0  0  0  0  0  0  0  0
   -1.1060    1.1742    0.2338 C   0  0  0  0  0  0  0  0  0  0  0  0
    0.2301    1.3158    0.3567 N   0  0  0  0  0  0  0  0  0  0  0  0
   -2.6200    2.5968    0.5119 I   0  0  0  0  0  0  0  0  0  0  0  0
   -2.6200   -0.7761   -0.3775 C   0  0  0  0  0  0  0  0  0  0  0  0
   -3.6360   -1.2845   -0.5580 N   0  0  0  0  0  0  0  0  0  0  0  0
  1  2  1  0
  2  3  1  0
  3  4  2  0
  4  5  1  0
  5  6  2  0
  5  7  1  0
  4  8  1  0
  8  9  3  0
  6  2  1  0
M  END

