
     RDKit          3D

 13 12  0  0  0  0  0  0  0  0999 V2000
   -3.6649    0.9619    0.5447 C   0  0  0  0  0  0  0  0  0  0  0  0
   -3.1126   -0.2936   -0.0870 C   0  0  0  0  0  0  0  0  0  0  0  0
   -4.2123   -0.8916   -0.7453 O   0  0  0  0  0  0  0  0  0  0  0  0
   -2.0130   -0.0780   -1.0195 C   0  0  0  0  0  0  0  0  0  0  0  0
   -2.2472   -0.3209   -2.2293 O   0  0  0  0  0  0  0  0  0  0  0  0
   -0.6627    0.3363   -0.6863 C   0  0  0  0  0  0  0  0  0  0  0  0
   -0.2372   -0.0278    0.6636 N   0  0  0  0  0  0  0  0  0  0  0  0
    1.0647   -0.5697    0.7836 C   0  0  0  0  0  0  0  0  0  0  0  0
    2.1630    0.3173    0.3457 C   0  0  0  0  0  0  0  0  0  0  0  0
    1.9766    0.8218   -0.9145 O   0  0  0  0  0  0  0  0  0  0  0  0
    3.3439   -0.7046    0.2494 C   0  0  0  0  0  0  0  0  0  0  0  0
    4.4730   -0.0640   -0.4257 C   0  0  0  0  0  0  0  0  0  0  0  0
    4.3236    0.0478   -1.6604 O   0  0  0  0  0  0  0  0  0  0  0  0
  1  2  1  0
  2  3  1  0
  2  4  1  0
  4  5  2  0
  4  6  1  0
  6  7  1  0
  7  8  1  0
  8  9  1  0
  9 10  1  0
  9 11  1  0
 11 12  1  0
 12 13  2  0
M  END

