
     RDKit          3D

 13 13  0  0  0  0  0  0  0  0999 V2000
   -2.4092   -1.1618    0.8480 C   0  0  0  0  0  0  0  0  0  0  0  0
   -1.7415   -0.9639   -0.4905 C   0  0  0  0  0  0  0  0  0  0  0  0
   -1.1106   -2.1467   -0.9825 N   0  0  0  0  0  0  0  0  0  0  0  0
   -0.7719    0.1716   -0.5083 C   0  0  0  0  0  0  0  0  0  0  0  0
   -1.3835    1.3869   -0.0228 O   0  0  0  0  0  0  0  0  0  0  0  0
   -0.3076    2.2337    0.2489 C   0  0  0  0  0  0  0  0  0  0  0  0
   -0.3569    3.7289    0.2641 C   0  0  0  0  0  0  0  0  0  0  0  0
    0.7791    1.5315    0.4952 C   0  0  0  0  0  0  0  0  0  0  0  0
    0.3942    0.1023    0.3783 C   0  0  0  0  0  0  0  0  0  0  0  0
    0.0763   -0.3457    1.7183 N   0  0  0  0  0  0  0  0  0  0  0  0
    1.5970   -0.6454   -0.0933 C   0  0  0  0  0  0  0  0  0  0  0  0
    2.2091   -0.1336   -1.3493 C   0  0  0  0  0  0  0  0  0  0  0  0
    1.4365   -2.0779   -0.1163 N   0  0  0  0  0  0  0  0  0  0  0  0
  1  2  1  0
  2  3  1  0
  2  4  1  0
  4  5  1  0
  5  6  1  0
  6  7  1  0
  6  8  2  0
  8  9  1  0
  9 10  1  0
  9 11  1  0
 11 12  1  0
 11 13  1  0
  9  4  1  0
M  END

