
     RDKit          3D

 13 12  0  0  0  0  0  0  0  0999 V2000
    3.0580    1.2301    0.9674 C   0  0  0  0  0  0  0  0  0  0  0  0
    3.0099    0.1312   -0.0855 C   0  0  0  0  0  0  0  0  0  0  0  0
    4.1987    0.3106   -0.8999 O   0  0  0  0  0  0  0  0  0  0  0  0
    1.8356    0.1903   -0.9488 C   0  0  0  0  0  0  0  0  0  0  0  0
    2.0762    0.4557   -2.2203 O   0  0  0  0  0  0  0  0  0  0  0  0
    0.4595    0.0083   -0.6505 C   0  0  0  0  0  0  0  0  0  0  0  0
   -0.1776   -0.2652    0.4417 C   0  0  0  0  0  0  0  0  0  0  0  0
    0.5443   -0.4652    1.7685 C   0  0  0  0  0  0  0  0  0  0  0  0
   -1.5978   -0.4000    0.5189 C   0  0  0  0  0  0  0  0  0  0  0  0
   -2.0069   -0.6833    1.7435 O   0  0  0  0  0  0  0  0  0  0  0  0
   -2.5942   -0.2902   -0.4325 N   0  0  0  0  0  0  0  0  0  0  0  0
   -4.0186   -0.5147    0.0664 C   0  0  0  0  0  0  0  0  0  0  0  0
   -2.5383    0.0034   -1.8205 C   0  0  0  0  0  0  0  0  0  0  0  0
  1  2  1  0
  2  3  1  0
  2  4  1  0
  4  5  2  0
  4  6  1  0
  6  7  2  3
  7  8  1  0
  7  9  1  0
  9 10  2  0
  9 11  1  0
 11 12  1  0
 11 13  1  0
M  END

