
     RDKit          3D

 11 12  0  0  0  0  0  0  0  0999 V2000
   -2.1283   -0.6969    0.0557 C   0  0  0  0  0  0  0  0  0  0  0  0
   -0.6589   -0.5681    0.0435 C   0  0  0  0  0  0  0  0  0  0  0  0
    0.3434   -1.3887    0.1155 N   0  0  0  0  0  0  0  0  0  0  0  0
    1.7018   -0.9866    0.0791 C   0  0  0  0  0  0  0  0  0  0  0  0
    2.6153   -1.8569    0.1556 O   0  0  0  0  0  0  0  0  0  0  0  0
    2.0660    0.4195   -0.0455 C   0  0  0  0  0  0  0  0  0  0  0  0
    3.2861    0.7985   -0.0798 O   0  0  0  0  0  0  0  0  0  0  0  0
    0.9944    1.3505   -0.1273 N   0  0  0  0  0  0  0  0  0  0  0  0
   -0.3588    0.8497   -0.0822 C   0  0  0  0  0  0  0  0  0  0  0  0
   -1.4793    1.4706   -0.1365 N   0  0  0  0  0  0  0  0  0  0  0  0
   -2.5484    0.6496   -0.0632 O   0  0  0  0  0  0  0  0  0  0  0  0
  1  2  1  0
  2  3  2  0
  3  4  1  0
  4  5  2  0
  4  6  1  0
  6  7  2  0
  6  8  1  0
  8  9  1  0
  9 10  2  0
 10 11  1  0
 11  1  1  0
  9  2  1  0
M  END

