
     RDKit          3D

 12 11  0  0  0  0  0  0  0  0999 V2000
   -2.7463    0.9371   -0.2638 C   0  0  0  0  0  0  0  0  0  0  0  0
   -2.2124   -0.2633    0.5842 C   0  0  0  0  0  0  0  0  0  0  0  0
   -1.0605   -0.7928    0.0734 N   0  0  0  0  0  0  0  0  0  0  0  0
    0.0827   -1.3215   -0.4340 C   0  0  0  0  0  0  0  0  0  0  0  0
    0.3676   -2.5321   -0.7270 O   0  0  0  0  0  0  0  0  0  0  0  0
    1.2036   -0.2965   -0.6931 C   0  0  0  0  0  0  0  0  0  0  0  0
    2.2756   -1.0157   -1.1899 O   0  0  0  0  0  0  0  0  0  0  0  0
    3.3175   -0.1154   -1.4371 C   0  0  0  0  0  0  0  0  0  0  0  0
    3.6505    0.5308   -0.1472 C   0  0  0  0  0  0  0  0  0  0  0  0
    3.9240    1.0494    0.8537 N   0  0  0  0  0  0  0  0  0  0  0  0
   -1.9405    0.3764    1.9232 C   0  0  0  0  0  0  0  0  0  0  0  0
   -1.7044    0.8861    2.9879 C   0  0  0  0  0  0  0  0  0  0  0  0
  1  2  1  0
  2  3  1  0
  3  4  1  0
  4  5  2  0
  4  6  1  0
  6  7  1  0
  7  8  1  0
  8  9  1  0
  9 10  3  0
  2 11  1  0
 11 12  3  0
M  END

