
     RDKit          3D

 12 12  0  0  0  0  0  0  0  0999 V2000
   -2.1974   -2.2404    0.2680 C   0  0  0  0  0  0  0  0  0  0  0  0
   -2.0152   -0.7951    0.0051 C   0  0  0  0  0  0  0  0  0  0  0  0
   -3.0555   -0.1035   -0.1377 O   0  0  0  0  0  0  0  0  0  0  0  0
   -0.6988   -0.1806   -0.0879 C   0  0  0  0  0  0  0  0  0  0  0  0
    0.5401   -0.7849    0.0418 C   0  0  0  0  0  0  0  0  0  0  0  0
    1.5117    0.1278   -0.1111 N   0  0  0  0  0  0  0  0  0  0  0  0
    2.9371   -0.0981   -0.0481 C   0  0  0  0  0  0  0  0  0  0  0  0
    3.4326   -1.2863    0.1776 C   0  0  0  0  0  0  0  0  0  0  0  0
    0.8963    1.2981   -0.3354 C   0  0  0  0  0  0  0  0  0  0  0  0
   -0.4630    1.1527   -0.3292 C   0  0  0  0  0  0  0  0  0  0  0  0
   -1.5307    2.1734   -0.5328 C   0  0  0  0  0  0  0  0  0  0  0  0
   -0.9613    3.4265   -0.7544 O   0  0  0  0  0  0  0  0  0  0  0  0
  1  2  1  0
  2  3  2  0
  2  4  1  0
  4  5  2  0
  5  6  1  0
  6  7  1  0
  7  8  2  0
  6  9  1  0
  9 10  2  0
 10 11  1  0
 11 12  1  0
 10  4  1  0
M  END

