
     RDKit          3D

 16 15  0  0  0  0  0  0  0  0999 V2000
   -4.3298   -1.3987    1.1314 C   0  0  0  0  0  0  0  0  0  0  0  0
   -4.6901   -0.0566    0.5821 C   0  0  0  0  0  0  0  0  0  0  0  0
   -4.8906    0.8290    1.6648 O   0  0  0  0  0  0  0  0  0  0  0  0
   -3.6045    0.4133   -0.2777 C   0  0  0  0  0  0  0  0  0  0  0  0
   -2.7192    0.8168   -0.9994 C   0  0  0  0  0  0  0  0  0  0  0  0
   -1.6670    1.3203   -1.8823 C   0  0  0  0  0  0  0  0  0  0  0  0
   -0.3710    0.5542   -1.6814 C   0  0  0  0  0  0  0  0  0  0  0  0
    0.1119    0.7039   -0.2306 C   0  0  0  0  0  0  0  0  0  0  0  0
    1.3598   -0.0568   -0.1333 C   0  0  0  0  0  0  0  0  0  0  0  0
    1.3138   -1.2660   -0.5162 O   0  0  0  0  0  0  0  0  0  0  0  0
    2.5916    0.5046    0.3633 C   0  0  0  0  0  0  0  0  0  0  0  0
    3.8101   -0.3215    0.4257 C   0  0  0  0  0  0  0  0  0  0  0  0
    3.9439   -1.5427    0.0842 C   0  0  0  0  0  0  0  0  0  0  0  0
    5.3224   -2.1676    0.2502 C   0  0  0  0  0  0  0  0  0  0  0  0
    2.7246    1.7360    0.7825 N   0  0  0  0  0  0  0  0  0  0  0  0
    1.7987    2.6725    0.8368 O   0  0  0  0  0  0  0  0  0  0  0  0
  1  2  1  0
  2  3  1  0
  2  4  1  0
  4  5  3  0
  5  6  1  0
  6  7  1  0
  7  8  1  0
  8  9  1  0
  9 10  2  0
  9 11  1  0
 11 12  1  0
 12 13  2  3
 13 14  1  0
 11 15  2  3
 15 16  1  0
M  END

