CC([NH3+])COCCCCC([NH3+])C(N)=O
     RDKit          3D

 14 13  0  0  0  0  0  0  0  0999 V2000
   -4.2133    0.8970    0.5194 C   0  0  0  0  0  0  0  0  0  0  0  0
   -3.4330   -0.0118   -0.4024 C   0  0  0  0  0  0  0  0  0  0  0  0
   -2.7795    0.7388   -1.4481 N   0  0  0  0  0  4  0  0  0  0  0  0
   -2.4026   -0.7303    0.4786 C   0  0  0  0  0  0  0  0  0  0  0  0
   -1.6470   -1.6036   -0.2601 O   0  0  0  0  0  0  0  0  0  0  0  0
   -0.7382   -2.2896    0.5029 C   0  0  0  0  0  0  0  0  0  0  0  0
    0.2461   -1.3995    1.1772 C   0  0  0  0  0  0  0  0  0  0  0  0
    0.9767   -0.6217    0.0715 C   0  0  0  0  0  0  0  0  0  0  0  0
    1.9588    0.2643    0.7731 C   0  0  0  0  0  0  0  0  0  0  0  0
    2.7840    1.1285   -0.1253 C   0  0  0  0  0  0  0  0  0  0  0  0
    3.6886    1.9318    0.7140 N   0  0  0  0  0  4  0  0  0  0  0  0
    3.5724    0.3762   -1.0984 C   0  0  0  0  0  0  0  0  0  0  0  0
    2.9499   -0.4432   -2.0777 N   0  0  0  0  0  0  0  0  0  0  0  0
    4.8306    0.4498   -1.0770 O   0  0  0  0  0  0  0  0  0  0  0  0
  1  2  1  0
  2  3  1  0
  2  4  1  0
  4  5  1  0
  5  6  1  0
  6  7  1  0
  7  8  1  0
  8  9  1  0
  9 10  1  0
 10 11  1  0
 10 12  1  0
 12 13  1  0
 12 14  2  0
M  CHG  2   3   1  11   1
M  END

