CC(NCS(=O)(=O)C#C)C1=CCOC1
     RDKit          3D

 14 14  0  0  0  0  0  0  0  0999 V2000
   -0.0653   -1.1374   -1.5223 C   0  0  0  0  0  0  0  0  0  0  0  0
   -0.3733    0.0307   -0.6257 C   0  0  0  0  0  0  0  0  0  0  0  0
    0.4824    0.0816    0.5409 N   0  0  0  0  0  0  0  0  0  0  0  0
    1.8369    0.3075    0.1461 C   0  0  0  0  0  0  0  0  0  0  0  0
    2.9200    0.3350    1.5772 S   0  0  0  0  0  6  0  0  0  0  0  0
    2.8579   -1.0042    2.2900 O   0  0  0  0  0  0  0  0  0  0  0  0
    2.5392    1.4259    2.4994 O   0  0  0  0  0  0  0  0  0  0  0  0
    4.5528    0.6246    1.0392 C   0  0  0  0  0  0  0  0  0  0  0  0
    5.6878    0.8177    0.6408 C   0  0  0  0  0  0  0  0  0  0  0  0
   -1.8178    0.0588   -0.3046 C   0  0  0  0  0  0  0  0  0  0  0  0
   -2.4088   -0.0210    0.8937 C   0  0  0  0  0  0  0  0  0  0  0  0
   -3.8706    0.0564    0.6635 C   0  0  0  0  0  0  0  0  0  0  0  0
   -3.9332    0.7673   -0.5541 O   0  0  0  0  0  0  0  0  0  0  0  0
   -2.9222    0.1767   -1.2955 C   0  0  0  0  0  0  0  0  0  0  0  0
  1  2  1  0
  2  3  1  0
  3  4  1  0
  4  5  1  0
  5  6  2  0
  5  7  2  0
  5  8  1  0
  8  9  3  0
  2 10  1  0
 10 11  2  0
 11 12  1  0
 12 13  1  0
 13 14  1  0
 14 10  1  0
M  END

