
     RDKit          3D

 16 16  0  0  0  0  0  0  0  0999 V2000
    1.5591   -1.9031    0.2310 C   0  0  0  0  0  0  0  0  0  0  0  0
    1.3383   -0.5604   -0.0451 C   0  0  0  0  0  0  0  0  0  0  0  0
    0.0570   -0.2116   -0.1968 N   0  0  0  0  0  0  0  0  0  0  0  0
   -0.9857   -1.0618   -0.0997 C   0  0  0  0  0  0  0  0  0  0  0  0
   -0.7055   -2.4068    0.1803 C   0  0  0  0  0  0  0  0  0  0  0  0
    0.5628   -2.7837    0.3370 N   0  0  0  0  0  0  0  0  0  0  0  0
   -2.3012   -0.7497   -0.2493 O   0  0  0  0  0  0  0  0  0  0  0  0
   -2.9237    0.4581   -0.5150 C   0  0  0  0  0  0  0  0  0  0  0  0
   -2.7015    1.4665    0.5566 C   0  0  0  0  0  0  0  0  0  0  0  0
   -3.3745    2.6400    0.1839 F   0  0  0  0  0  0  0  0  0  0  0  0
   -1.3691    1.7078    0.7348 F   0  0  0  0  0  0  0  0  0  0  0  0
   -3.2831    1.0011    1.7433 F   0  0  0  0  0  0  0  0  0  0  0  0
    2.4656    0.3416   -0.1594 C   0  0  0  0  0  0  0  0  0  0  0  0
    2.3856    1.5924   -0.4245 N   0  0  0  0  0  0  0  0  0  0  0  0
    1.2438    2.3036   -0.6470 O   0  0  0  0  0  0  0  0  0  0  0  0
    3.7971   -0.1680    0.0331 N   0  0  0  0  0  0  0  0  0  0  0  0
  1  2  2  0
  2  3  1  0
  3  4  2  0
  4  5  1  0
  5  6  2  0
  4  7  1  0
  7  8  1  0
  8  9  1  0
  9 10  1  0
  9 11  1  0
  9 12  1  0
  2 13  1  0
 13 14  2  3
 14 15  1  0
 13 16  1  0
  6  1  1  0
M  END

