C1=CC2=C(C=C1Cl)C(=O)C(=CN2)C3=NNN=N3
     RDKit          3D

 17 19  0  0  0  0  0  0  0  0999 V2000
   -3.6924    0.2633   -0.0735 C   0  0  0  0  0  0  0  0  0  0  0  0
   -2.8957   -0.8526   -0.2159 C   0  0  0  0  0  0  0  0  0  0  0  0
   -1.5220   -0.7328   -0.2152 C   0  0  0  0  0  0  0  0  0  0  0  0
   -0.9384    0.5192   -0.0702 C   0  0  0  0  0  0  0  0  0  0  0  0
   -1.7086    1.6527    0.0740 C   0  0  0  0  0  0  0  0  0  0  0  0
   -3.0762    1.4904    0.0681 C   0  0  0  0  0  0  0  0  0  0  0  0
   -4.0614    2.9302    0.2514 Cl  0  0  0  0  0  0  0  0  0  0  0  0
    0.4423    0.6702   -0.0658 C   0  0  0  0  0  0  0  0  0  0  0  0
    0.9786    1.7999    0.0649 O   0  0  0  0  0  0  0  0  0  0  0  0
    1.2391   -0.4422   -0.2078 C   0  0  0  0  0  0  0  0  0  0  0  0
    0.6196   -1.6608   -0.3484 C   0  0  0  0  0  0  0  0  0  0  0  0
   -0.7192   -1.8030   -0.3521 N   0  0  0  0  0  0  0  0  0  0  0  0
    2.6855   -0.2793   -0.2026 C   0  0  0  0  0  0  0  0  0  0  0  0
    3.4059    0.8481   -0.0740 N   0  0  0  0  0  0  0  0  0  0  0  0
    4.7080    0.5784   -0.1195 N   0  0  0  0  0  0  0  0  0  0  0  0
    4.8205   -0.7235   -0.2775 N   0  0  0  0  0  0  0  0  0  0  0  0
    3.6044   -1.2667   -0.3308 N   0  0  0  0  0  0  0  0  0  0  0  0
  1  2  2  0
  2  3  1  0
  3  4  2  0
  4  5  1  0
  5  6  2  0
  6  7  1  0
  4  8  1  0
  8  9  2  0
  8 10  1  0
 10 11  2  0
 11 12  1  0
 10 13  1  0
 13 14  2  0
 14 15  1  0
 15 16  1  0
 16 17  2  0
  6  1  1  0
 12  3  1  0
 17 13  1  0
M  END

