
     RDKit          3D

 17 17  0  0  0  0  0  0  0  0999 V2000
    1.0274    1.0969   -1.2130 C   0  0  0  0  0  0  0  0  0  0  0  0
    0.9909    0.6389    0.2034 C   0  0  0  0  0  0  0  0  0  0  0  0
    1.7914   -0.5520    0.4499 N   0  0  0  0  0  4  0  0  0  0  0  0
    2.8317   -0.6790   -0.5142 C   0  0  0  0  0  0  0  0  0  0  0  0
    4.1745   -1.0902    0.0421 C   0  0  0  0  0  0  0  0  0  0  0  0
    4.7261   -0.1054    1.0440 C   0  0  0  0  0  0  0  0  0  0  0  0
    6.0334   -0.5408    1.5528 C   0  0  0  0  0  0  0  0  0  0  0  0
    7.0827   -0.8717    1.9475 N   0  0  0  0  0  0  0  0  0  0  0  0
   -0.3463    0.5523    0.8475 C   0  0  0  0  0  0  0  0  0  0  0  0
   -0.0536    0.0796    2.3015 C   0  0  0  0  0  0  0  0  0  0  0  0
   -1.2834   -0.3896    0.3609 N   0  0  0  0  0  0  0  0  0  0  0  0
   -1.7638   -0.2856   -0.9565 C   0  0  0  0  0  0  0  0  0  0  0  0
   -2.6585    0.9005   -1.2161 C   0  0  0  0  0  0  0  0  0  0  0  0
   -4.1008    0.4966   -1.0484 C   0  0  0  0  0  0  0  0  0  0  0  0
   -4.3421    0.2605    0.3479 N   0  0  0  0  0  4  0  0  0  0  0  0
   -3.6604   -0.9004    0.8771 C   0  0  0  0  0  0  0  0  0  0  0  0
   -2.3208   -0.4921    1.3654 C   0  0  0  0  0  0  0  0  0  0  0  0
  1  2  1  0
  2  3  1  0
  3  4  1  0
  4  5  1  0
  5  6  1  0
  6  7  1  0
  7  8  3  0
  2  9  1  0
  9 10  1  0
  9 11  1  0
 11 12  1  0
 12 13  1  0
 13 14  1  0
 14 15  1  0
 15 16  1  0
 16 17  1  0
 17 11  1  0
M  CHG  2   3   1  15   1
M  END

