
     RDKit          3D

 17 17  0  0  0  0  0  0  0  0999 V2000
    4.5861    1.5954    0.9033 C   0  0  0  0  0  0  0  0  0  0  0  0
    3.8157    0.3030    0.8671 C   0  0  0  0  0  0  0  0  0  0  0  0
    2.8045    0.3922   -0.1253 O   0  0  0  0  0  0  0  0  0  0  0  0
    1.9255   -0.6240   -0.4092 C   0  0  0  0  0  0  0  0  0  0  0  0
    2.0241   -1.6911    0.2476 O   0  0  0  0  0  0  0  0  0  0  0  0
    0.9089   -0.5015   -1.4242 N   0  0  0  0  0  0  0  0  0  0  0  0
    0.0670   -1.5137   -1.6755 N   0  0  0  0  0  0  0  0  0  0  0  0
   -1.1206   -1.6553   -1.3091 C   0  0  0  0  0  0  0  0  0  0  0  0
   -1.8605   -0.7207   -0.5075 C   0  0  0  0  0  0  0  0  0  0  0  0
   -3.1935   -1.0380   -0.1850 C   0  0  0  0  0  0  0  0  0  0  0  0
   -3.9950   -0.2264    0.5707 C   0  0  0  0  0  0  0  0  0  0  0  0
   -3.4962    0.9612    1.0491 C   0  0  0  0  0  0  0  0  0  0  0  0
   -2.2219    1.3241    0.7743 C   0  0  0  0  0  0  0  0  0  0  0  0
   -1.4352    0.4662   -0.0019 C   0  0  0  0  0  0  0  0  0  0  0  0
   -1.4820    2.8035    1.3257 Cl  0  0  0  0  0  0  0  0  0  0  0  0
   -5.6530   -0.6588    0.9507 Cl  0  0  0  0  0  0  0  0  0  0  0  0
   -3.7305   -2.2236   -0.6480 O   0  0  0  0  0  0  0  0  0  0  0  0
  1  2  1  0
  2  3  1  0
  3  4  1  0
  4  5  2  0
  4  6  1  0
  6  7  1  0
  7  8  2  0
  8  9  1  0
  9 10  2  0
 10 11  1  0
 11 12  2  0
 12 13  1  0
 13 14  2  0
 13 15  1  0
 11 16  1  0
 10 17  1  0
 14  9  1  0
M  END

