
     RDKit          3D

 18 20  0  0  0  0  0  0  0  0999 V2000
    2.4097    1.1115    1.1502 C   0  0  0  0  0  0  0  0  0  0  0  0
    1.0499    1.2944    1.2928 C   0  0  0  0  0  0  0  0  0  0  0  0
    0.1886    0.5349    0.5023 C   0  0  0  0  0  0  0  0  0  0  0  0
    0.7338   -0.3721   -0.3940 C   0  0  0  0  0  0  0  0  0  0  0  0
    2.0968   -0.5382   -0.5196 C   0  0  0  0  0  0  0  0  0  0  0  0
    2.9573    0.2060    0.2556 C   0  0  0  0  0  0  0  0  0  0  0  0
    4.4025    0.0529    0.1455 C   0  0  0  0  0  0  0  0  0  0  0  0
    4.9357   -0.7549   -0.6512 O   0  0  0  0  0  0  0  0  0  0  0  0
    5.2288    0.8204    0.9431 O   0  0  0  0  0  0  0  0  0  0  0  0
   -0.3213   -0.9475   -1.0052 N   0  0  0  0  0  0  0  0  0  0  0  0
   -1.4842   -0.4579   -0.5478 C   0  0  0  0  0  0  0  0  0  0  0  0
   -1.1375    0.4681    0.3947 N   0  0  0  0  0  0  0  0  0  0  0  0
   -2.8350   -0.8222   -0.9556 C   0  0  0  0  0  0  0  0  0  0  0  0
   -3.1498   -1.7353   -1.8840 N   0  0  0  0  0  0  0  0  0  0  0  0
   -4.4398   -1.7987   -1.9870 O   0  0  0  0  0  0  0  0  0  0  0  0
   -5.0306   -0.9810   -1.1822 N   0  0  0  0  0  0  0  0  0  0  0  0
   -4.0428   -0.3390   -0.5060 C   0  0  0  0  0  0  0  0  0  0  0  0
   -4.1900    0.6537    0.4885 N   0  0  0  0  0  0  0  0  0  0  0  0
  1  2  2  0
  2  3  1  0
  3  4  2  0
  4  5  1  0
  5  6  2  0
  6  7  1  0
  7  8  2  0
  7  9  1  0
  4 10  1  0
 10 11  1  0
 11 12  2  0
 11 13  1  0
 13 14  2  0
 14 15  1  0
 15 16  1  0
 16 17  2  0
 17 18  1  0
  6  1  1  0
 12  3  1  0
 17 13  1  0
M  END

