
     RDKit          3D

 21 22  0  0  0  0  0  0  0  0999 V2000
   -5.9334   -0.9575   -0.0258 C   0  0  0  0  0  0  0  0  0  0  0  0
   -4.8187   -1.6961   -0.4254 C   0  0  0  0  0  0  0  0  0  0  0  0
   -3.6019   -1.0676   -0.4424 C   0  0  0  0  0  0  0  0  0  0  0  0
   -3.4150    0.2516   -0.0890 C   0  0  0  0  0  0  0  0  0  0  0  0
   -4.5396    0.9847    0.3096 C   0  0  0  0  0  0  0  0  0  0  0  0
   -5.7676    0.3583    0.3304 C   0  0  0  0  0  0  0  0  0  0  0  0
   -4.4031    2.3219    0.6457 C   0  0  0  0  0  0  0  0  0  0  0  0
   -3.1646    2.9317    0.5873 C   0  0  0  0  0  0  0  0  0  0  0  0
   -2.0442    2.2477    0.2037 C   0  0  0  0  0  0  0  0  0  0  0  0
   -2.2129    0.8853   -0.1319 C   0  0  0  0  0  0  0  0  0  0  0  0
   -0.9959    0.1948   -0.4493 C   0  0  0  0  0  0  0  0  0  0  0  0
   -0.1895    0.7794   -1.2769 O   0  0  0  0  0  0  0  0  0  0  0  0
   -0.6201   -1.0375    0.0684 N   0  0  0  0  0  0  0  0  0  0  0  0
    0.6476   -1.6783   -0.3173 C   0  0  0  0  0  0  0  0  0  0  0  0
    1.7351   -0.7596    0.0706 C   0  0  0  0  0  0  0  0  0  0  0  0
    1.4744    0.3186    0.6432 O   0  0  0  0  0  0  0  0  0  0  0  0
    3.0902   -1.0790   -0.2012 N   0  0  0  0  0  0  0  0  0  0  0  0
    4.1565   -0.1443    0.1923 C   0  0  0  0  0  0  0  0  0  0  0  0
    5.4807   -0.7091   -0.2057 C   0  0  0  0  0  0  0  0  0  0  0  0
    6.6365    0.1911    0.1616 C   0  0  0  0  0  0  0  0  0  0  0  0
    6.5064    1.4280   -0.4788 O   0  0  0  0  0  0  0  0  0  0  0  0
  1  2  2  0
  2  3  1  0
  3  4  2  0
  4  5  1  0
  5  6  2  0
  5  7  1  0
  7  8  2  0
  8  9  1  0
  9 10  2  0
 10 11  1  0
 11 12  2  0
 11 13  1  0
 13 14  1  0
 14 15  1  0
 15 16  2  0
 15 17  1  0
 17 18  1  0
 18 19  1  0
 19 20  1  0
 20 21  1  0
  6  1  1  0
 10  4  1  0
M  END

