C1=CC=C(C=C1)CN2C3=C(C=C2C(=O)NCCS(=O)(=O)O)SC=C3
     RDKit          3D

 24 26  0  0  0  0  0  0  0  0999 V2000
   -4.3601    2.4777    0.8077 C   0  0  0  0  0  0  0  0  0  0  0  0
   -3.0410    2.8329    0.6528 C   0  0  0  0  0  0  0  0  0  0  0  0
   -2.2108    2.0434   -0.1537 C   0  0  0  0  0  0  0  0  0  0  0  0
   -2.6597    0.9239   -0.7998 C   0  0  0  0  0  0  0  0  0  0  0  0
   -3.9926    0.5586   -0.6482 C   0  0  0  0  0  0  0  0  0  0  0  0
   -4.7971    1.3406    0.1453 C   0  0  0  0  0  0  0  0  0  0  0  0
   -1.8170    0.0672   -1.6663 C   0  0  0  0  0  0  0  0  0  0  0  0
   -1.0774   -0.9516   -0.9203 N   0  0  0  0  0  0  0  0  0  0  0  0
   -1.5908   -2.1897   -0.5840 C   0  0  0  0  0  0  0  0  0  0  0  0
   -0.5825   -2.8032    0.0946 C   0  0  0  0  0  0  0  0  0  0  0  0
    0.5283   -1.9843    0.1834 C   0  0  0  0  0  0  0  0  0  0  0  0
    0.1762   -0.8170   -0.4746 C   0  0  0  0  0  0  0  0  0  0  0  0
    1.1156    0.3149   -0.6615 C   0  0  0  0  0  0  0  0  0  0  0  0
    0.8590    1.2838   -1.4109 O   0  0  0  0  0  0  0  0  0  0  0  0
    2.3618    0.2917    0.0457 N   0  0  0  0  0  0  0  0  0  0  0  0
    3.2637    1.3936   -0.1430 C   0  0  0  0  0  0  0  0  0  0  0  0
    4.5321    1.2791    0.6312 C   0  0  0  0  0  0  0  0  0  0  0  0
    5.4549   -0.1681    0.1903 S   0  0  0  0  0  6  0  0  0  0  0  0
    4.7015   -1.4319    0.4632 O   0  0  0  0  0  0  0  0  0  0  0  0
    5.7918   -0.0919   -1.2674 O   0  0  0  0  0  0  0  0  0  0  0  0
    6.8782   -0.2160    1.1164 O   0  0  0  0  0  0  0  0  0  0  0  0
   -1.2509   -4.3339    0.4937 S   0  0  0  0  0  0  0  0  0  0  0  0
   -2.7858   -4.1546   -0.2095 C   0  0  0  0  0  0  0  0  0  0  0  0
   -2.7466   -2.8999   -0.7434 C   0  0  0  0  0  0  0  0  0  0  0  0
  1  2  2  0
  2  3  1  0
  3  4  2  0
  4  5  1  0
  5  6  2  0
  4  7  1  0
  7  8  1  0
  8  9  1  0
  9 10  2  0
 10 11  1  0
 11 12  2  0
 12 13  1  0
 13 14  2  0
 13 15  1  0
 15 16  1  0
 16 17  1  0
 17 18  1  0
 18 19  2  0
 18 20  2  0
 18 21  1  0
 10 22  1  0
 22 23  1  0
 23 24  2  0
  6  1  1  0
 12  8  1  0
 24  9  1  0
M  END

