
     RDKit          3D

 12 11  0  0  0  0  0  0  0  0999 V2000
    4.1411    1.2677   -0.0529 C   0  0  0  0  0  0  0  0  0  0  0  0
    3.8359   -0.1170    0.4584 C   0  0  0  0  0  0  0  0  0  0  0  0
    4.6585   -1.0875   -0.1073 O   0  0  0  0  0  0  0  0  0  0  0  0
    2.4585   -0.5209    0.1586 C   0  0  0  0  0  0  0  0  0  0  0  0
    1.3185   -0.8471   -0.0694 C   0  0  0  0  0  0  0  0  0  0  0  0
   -0.0852   -1.2381   -0.3257 C   0  0  0  0  0  0  0  0  0  0  0  0
   -0.4035   -2.2649    0.6466 N   0  0  0  0  0  0  0  0  0  0  0  0
   -0.9201   -0.0101   -0.1224 C   0  0  0  0  0  0  0  0  0  0  0  0
   -2.3832   -0.2218   -0.3418 C   0  0  0  0  0  0  0  0  0  0  0  0
   -3.0558    1.1295   -0.0900 C   0  0  0  0  0  0  0  0  0  0  0  0
   -4.5318    1.0757   -0.2724 C   0  0  0  0  0  0  0  0  0  0  0  0
   -2.4852    2.0932   -1.0357 N   0  0  0  0  0  1  0  0  0  0  0  0
  1  2  1  0
  2  3  1  0
  2  4  1  0
  4  5  3  0
  5  6  1  0
  6  7  1  0
  6  8  1  0
  8  9  1  0
  9 10  1  0
 10 11  1  0
 10 12  1  0
M  RAD  1  12   3
M  END

