
     RDKit          3D

 13 14  0  0  0  0  0  0  0  0999 V2000
   -3.7602    0.1972   -0.8775 C   0  0  0  0  0  0  0  0  0  0  0  0
   -2.6442   -0.4297   -0.0691 C   0  0  0  0  0  0  0  0  0  0  0  0
   -1.5649   -0.8912   -0.8908 N   0  0  0  0  0  0  0  0  0  0  0  0
   -0.4504   -0.9973    0.0774 C   0  0  0  0  0  0  0  0  0  0  0  0
    0.8667   -0.9809   -0.6178 C   0  0  0  0  0  0  0  0  0  0  0  0
    0.7952   -0.2520   -1.8050 O   0  0  0  0  0  0  0  0  0  0  0  0
    1.9582   -0.4324    0.2410 C   0  0  0  0  0  0  0  0  0  0  0  0
    3.2482   -0.2708   -0.5069 C   0  0  0  0  0  0  0  0  0  0  0  0
    1.5606    0.8954    0.8430 C   0  0  0  0  0  0  0  0  0  0  0  0
    2.2031    1.9987    0.6020 C   0  0  0  0  0  0  0  0  0  0  0  0
    0.3737    0.8330    1.7334 C   0  0  0  0  0  0  0  0  0  0  0  0
   -0.7253    0.1855    0.9303 C   0  0  0  0  0  0  0  0  0  0  0  0
   -2.0049    0.5310    0.8481 C   0  0  0  0  0  0  0  0  0  0  0  0
  1  2  1  0
  2  3  1  0
  3  4  1  0
  4  5  1  0
  5  6  1  0
  5  7  1  0
  7  8  1  0
  7  9  1  0
  9 10  2  0
  9 11  1  0
 11 12  1  0
 12 13  2  0
 13  2  1  0
 12  4  1  0
M  END

