
     RDKit          3D

 17 19  0  0  0  0  0  0  0  0999 V2000
   -4.0606    0.4571   -1.0780 C   0  0  0  0  0  0  0  0  0  0  0  0
   -2.6938    0.5350   -1.3768 C   0  0  0  0  0  0  0  0  0  0  0  0
   -1.8082    0.2946   -0.3539 C   0  0  0  0  0  0  0  0  0  0  0  0
   -0.4672    0.3109   -0.4030 C   0  0  0  0  0  0  0  0  0  0  0  0
   -0.0290   -0.0096    0.9460 C   0  0  0  0  0  0  0  0  0  0  0  0
    1.2309   -0.1077    1.3324 C   0  0  0  0  0  0  0  0  0  0  0  0
    2.3588    0.1095    0.4058 C   0  0  0  0  0  0  0  0  0  0  0  0
    3.4739   -0.6762    0.2822 C   0  0  0  0  0  0  0  0  0  0  0  0
    4.3793   -0.3099   -0.5927 N   0  0  0  0  0  0  0  0  0  0  0  0
    4.1565    0.8010   -1.3060 C   0  0  0  0  0  0  0  0  0  0  0  0
    5.1384    1.4623   -2.4668 S   0  0  0  0  0  0  0  0  0  0  0  0
    2.6451    1.3374   -0.7296 S   0  0  0  0  0  0  0  0  0  0  0  0
    3.6329   -1.8438    1.0825 O   0  0  0  0  0  0  0  0  0  0  0  0
   -1.2291   -0.1899    1.6911 N   0  0  0  0  0  0  0  0  0  0  0  0
   -2.2539   -0.0081    0.9113 C   0  0  0  0  0  0  0  0  0  0  0  0
   -3.5979   -0.0852    1.2155 C   0  0  0  0  0  0  0  0  0  0  0  0
   -4.4996    0.1571    0.1818 C   0  0  0  0  0  0  0  0  0  0  0  0
  1  2  2  0
  2  3  1  0
  3  4  2  0
  4  5  1  0
  5  6  2  0
  6  7  1  0
  7  8  2  0
  8  9  1  0
  9 10  1  0
 10 11  2  0
 10 12  1  0
  8 13  1  0
  5 14  1  0
 14 15  2  0
 15 16  1  0
 16 17  2  0
 17  1  1  0
 15  3  1  0
 12  7  1  0
M  END

