
     RDKit          3D

 17 18  0  0  0  0  0  0  0  0999 V2000
    5.1430    0.3119    0.1925 C   0  0  0  0  0  0  0  0  0  0  0  0
    3.7418   -0.1620    0.0388 C   0  0  0  0  0  0  0  0  0  0  0  0
    3.5605   -1.4284   -0.4737 C   0  0  0  0  0  0  0  0  0  0  0  0
    2.2871   -1.8915   -0.6268 C   0  0  0  0  0  0  0  0  0  0  0  0
    2.0849   -3.0411   -1.0914 O   0  0  0  0  0  0  0  0  0  0  0  0
    1.2516   -1.0996   -0.2737 N   0  0  0  0  0  0  0  0  0  0  0  0
    1.3980    0.1387    0.2282 C   0  0  0  0  0  0  0  0  0  0  0  0
    2.6655    0.5710    0.3691 N   0  0  0  0  0  0  0  0  0  0  0  0
    0.3236    1.0469    0.6145 C   0  0  0  0  0  0  0  0  0  0  0  0
   -0.0431    1.8801   -0.5881 C   0  0  0  0  0  0  0  0  0  0  0  0
   -0.9625    1.1306   -1.4835 C   0  0  0  0  0  0  0  0  0  0  0  0
   -2.1918    0.7555   -0.7224 C   0  0  0  0  0  0  0  0  0  0  0  0
   -1.9168    0.0435    0.4312 N   0  0  0  0  0  0  0  0  0  0  0  0
   -0.8578    0.4374    1.2711 C   0  0  0  0  0  0  0  0  0  0  0  0
   -2.5861   -1.1547    0.6989 C   0  0  0  0  0  0  0  0  0  0  0  0
   -4.0804   -0.9595    0.9976 C   0  0  0  0  0  0  0  0  0  0  0  0
   -4.7383   -0.3744   -0.0640 O   0  0  0  0  0  0  0  0  0  0  0  0
  1  2  1  0
  2  3  2  0
  3  4  1  0
  4  5  2  0
  4  6  1  0
  6  7  1  0
  7  8  2  0
  7  9  1  0
  9 10  1  0
 10 11  1  0
 11 12  1  0
 12 13  1  0
 13 14  1  0
 13 15  1  0
 15 16  1  0
 16 17  1  0
  8  2  1  0
 14  9  1  0
M  END

