
     RDKit          3D

 13 13  0  0  0  0  0  0  0  0999 V2000
   -0.1638   -1.8227   -0.0952 C   0  0  0  0  0  0  0  0  0  0  0  0
   -0.5015   -0.3498   -0.2034 C   0  0  0  0  0  0  0  0  0  0  0  0
   -1.0695    0.1062    1.0993 C   0  0  0  0  0  0  0  0  0  0  0  0
   -1.4824    1.4577    1.2974 N   0  0  0  0  0  0  0  0  0  0  0  0
   -1.1954   -0.7186    2.0679 N   0  0  0  0  0  0  0  0  0  0  0  0
   -1.4103   -0.0645   -1.3253 C   0  0  0  0  0  0  0  0  0  0  0  0
   -2.6226   -0.6012   -1.4978 C   0  0  0  0  0  0  0  0  0  0  0  0
   -0.7587    0.8472   -2.1324 O   0  0  0  0  0  0  0  0  0  0  0  0
    0.4817    1.1420   -1.5887 C   0  0  0  0  0  0  0  0  0  0  0  0
    0.6804    0.4777   -0.4744 C   0  0  0  0  0  0  0  0  0  0  0  0
    1.8508    0.5232    0.3743 N   0  0  0  0  0  0  0  0  0  0  0  0
    3.1450    0.4841   -0.1660 C   0  0  0  0  0  0  0  0  0  0  0  0
    4.1681    0.1445    0.5065 N   0  0  0  0  0  0  0  0  0  0  0  0
  1  2  1  0
  2  3  1  0
  3  4  1  0
  3  5  2  0
  2  6  1  0
  6  7  2  0
  6  8  1  0
  8  9  1  0
  9 10  2  0
 10 11  1  0
 11 12  1  0
 12 13  2  0
 10  2  1  0
M  END

