
     RDKit          3D

 18 20  0  0  0  0  0  0  0  0999 V2000
    1.5610   -1.2204    0.3485 C   0  0  0  0  0  0  0  0  0  0  0  0
    0.6350   -0.2975   -0.0369 C   0  0  0  0  0  0  0  0  0  0  0  0
    0.9723    0.8705   -0.6982 C   0  0  0  0  0  0  0  0  0  0  0  0
    2.2750    1.1192   -0.9805 C   0  0  0  0  0  0  0  0  0  0  0  0
    3.2486    0.1984   -0.6017 C   0  0  0  0  0  0  0  0  0  0  0  0
    2.9095   -0.9650    0.0573 C   0  0  0  0  0  0  0  0  0  0  0  0
    3.8292   -1.9033    0.4516 O   0  0  0  0  0  0  0  0  0  0  0  0
    4.5648    0.4826   -0.9045 O   0  0  0  0  0  0  0  0  0  0  0  0
    0.0155    1.7034   -1.0321 O   0  0  0  0  0  0  0  0  0  0  0  0
   -1.2479    1.4817   -0.7686 C   0  0  0  0  0  0  0  0  0  0  0  0
   -1.6797    0.3388   -0.1099 C   0  0  0  0  0  0  0  0  0  0  0  0
   -0.7017   -0.5591    0.2562 C   0  0  0  0  0  0  0  0  0  0  0  0
   -1.0620   -1.5989    0.8518 O   0  0  0  0  0  0  0  0  0  0  0  0
   -3.0856    0.1086    0.1745 C   0  0  0  0  0  0  0  0  0  0  0  0
   -4.1453    0.8720   -0.1107 N   0  0  0  0  0  0  0  0  0  0  0  0
   -5.2550    0.3031    0.3202 N   0  0  0  0  0  0  0  0  0  0  0  0
   -4.8991   -0.8343    0.8855 N   0  0  0  0  0  0  0  0  0  0  0  0
   -3.5872   -0.9618    0.8027 N   0  0  0  0  0  0  0  0  0  0  0  0
  1  2  2  0
  2  3  1  0
  3  4  2  0
  4  5  1  0
  5  6  2  0
  6  7  1  0
  5  8  1  0
  3  9  1  0
  9 10  1  0
 10 11  2  0
 11 12  1  0
 12 13  2  0
 11 14  1  0
 14 15  2  0
 15 16  1  0
 16 17  1  0
 17 18  2  0
  6  1  1  0
 12  2  1  0
 18 14  1  0
M  END

