
     RDKit          3D

 13 15  0  0  0  0  0  0  0  0999 V2000
   -1.5504   -1.3121    0.6771 C   0  0  0  0  0  0  0  0  0  0  0  0
   -0.5190   -1.0019    1.5558 C   0  0  0  0  0  0  0  0  0  0  0  0
    0.5234   -0.1635    1.2039 C   0  0  0  0  0  0  0  0  0  0  0  0
    0.5003    0.3644   -0.0792 C   0  0  0  0  0  0  0  0  0  0  0  0
    1.5408    1.1957   -0.4171 C   0  0  0  0  0  0  0  0  0  0  0  0
    2.5345    1.4676    0.4930 C   0  0  0  0  0  0  0  0  0  0  0  0
    2.5162    0.9259    1.7438 N   0  0  0  0  0  0  0  0  0  0  0  0
    1.5146    0.1064    2.1148 C   0  0  0  0  0  0  0  0  0  0  0  0
   -0.5247    0.0597   -0.9606 C   0  0  0  0  0  0  0  0  0  0  0  0
   -0.7766    0.4441   -2.2622 C   0  0  0  0  0  0  0  0  0  0  0  0
   -1.8908   -0.1277   -2.6522 O   0  0  0  0  0  0  0  0  0  0  0  0
   -2.3963   -0.8666   -1.6967 C   0  0  0  0  0  0  0  0  0  0  0  0
   -1.5586   -0.7789   -0.5952 C   0  0  0  0  0  0  0  0  0  0  0  0
  1  2  2  0
  2  3  1  0
  3  4  2  0
  4  5  1  0
  5  6  2  0
  6  7  1  0
  7  8  2  0
  4  9  1  0
  9 10  2  0
 10 11  1  0
 11 12  1  0
 12 13  2  0
 13  1  1  0
  8  3  1  0
 13  9  1  0
M  END

