CC1=C(CC#C)C(O)C(=O)CC1
     RDKit          3D

 12 12  0  0  0  0  0  0  0  0999 V2000
   -1.0744    2.1382   -0.0079 C   0  0  0  0  0  0  0  0  0  0  0  0
   -0.8387    0.6503    0.0377 C   0  0  0  0  0  0  0  0  0  0  0  0
    0.3670    0.1711   -0.2170 C   0  0  0  0  0  0  0  0  0  0  0  0
    1.4420    1.1117   -0.5377 C   0  0  0  0  0  0  0  0  0  0  0  0
    2.4999    0.9523    0.4582 C   0  0  0  0  0  0  0  0  0  0  0  0
    3.3628    0.8022    1.2819 C   0  0  0  0  0  0  0  0  0  0  0  0
    0.6497   -1.2949   -0.1829 C   0  0  0  0  0  0  0  0  0  0  0  0
    1.4761   -1.6643   -1.2624 O   0  0  0  0  0  0  0  0  0  0  0  0
   -0.5791   -2.1014   -0.2922 C   0  0  0  0  0  0  0  0  0  0  0  0
   -0.4873   -3.2440   -0.7092 O   0  0  0  0  0  0  0  0  0  0  0  0
   -1.9269   -1.6171    0.0719 C   0  0  0  0  0  0  0  0  0  0  0  0
   -2.0122   -0.1803    0.3752 C   0  0  0  0  0  0  0  0  0  0  0  0
  1  2  1  0
  2  3  2  0
  3  4  1  0
  4  5  1  0
  5  6  3  0
  3  7  1  0
  7  8  1  0
  7  9  1  0
  9 10  2  0
  9 11  1  0
 11 12  1  0
 12  2  1  0
M  END

