COCCC1(CCCC1N)O
     RDKit          3D

 11 11  0  0  0  0  0  0  0  0999 V2000
    4.1116   -0.5244    0.0422 C   0  0  0  0  0  0  0  0  0  0  0  0
    3.0651    0.1095    0.7000 O   0  0  0  0  0  0  0  0  0  0  0  0
    1.9044   -0.1322   -0.0320 C   0  0  0  0  0  0  0  0  0  0  0  0
    0.7037    0.5393    0.6361 C   0  0  0  0  0  0  0  0  0  0  0  0
   -0.5299    0.2434   -0.2020 C   0  0  0  0  0  0  0  0  0  0  0  0
   -0.7938   -1.2207   -0.3103 C   0  0  0  0  0  0  0  0  0  0  0  0
   -2.2471   -1.4367    0.0281 C   0  0  0  0  0  0  0  0  0  0  0  0
   -2.8893   -0.0766    0.1664 C   0  0  0  0  0  0  0  0  0  0  0  0
   -1.7328    0.8077    0.5665 C   0  0  0  0  0  0  0  0  0  0  0  0
   -1.9063    2.1719    0.1284 N   0  0  0  0  0  0  0  0  0  0  0  0
   -0.4362    0.8377   -1.4560 O   0  0  0  0  0  0  0  0  0  0  0  0
  1  2  1  0
  2  3  1  0
  3  4  1  0
  4  5  1  0
  5  6  1  0
  6  7  1  0
  7  8  1  0
  8  9  1  0
  9 10  1  0
  5 11  1  0
  9  5  1  0
M  END

