
     RDKit          3D

 12 12  0  0  0  0  0  0  0  0999 V2000
   -1.1660   -2.7719    0.2800 C   0  0  0  0  0  0  0  0  0  0  0  0
   -0.3542   -1.6661    0.0306 O   0  0  0  0  0  0  0  0  0  0  0  0
   -0.8543   -0.4129   -0.0248 C   0  0  0  0  0  0  0  0  0  0  0  0
   -0.0111    0.6626   -0.2769 C   0  0  0  0  0  0  0  0  0  0  0  0
   -0.5381    1.9122   -0.3233 C   0  0  0  0  0  0  0  0  0  0  0  0
   -1.8883    2.1578   -0.1345 C   0  0  0  0  0  0  0  0  0  0  0  0
   -2.7028    1.0779    0.1143 C   0  0  0  0  0  0  0  0  0  0  0  0
   -2.1749   -0.1516    0.1603 N   0  0  0  0  0  0  0  0  0  0  0  0
   -2.6130    3.9442   -0.2188 Br  0  0  0  0  0  0  0  0  0  0  0  0
    1.4499    0.4635   -0.5439 C   0  0  0  0  0  0  0  0  0  0  0  0
    2.0725   -0.2702    0.5586 N   0  0  0  0  0  0  0  0  0  0  0  0
    3.4934   -0.2483    0.3191 N   0  0  0  0  0  0  0  0  0  0  0  0
  1  2  1  0
  2  3  1  0
  3  4  2  0
  4  5  1  0
  5  6  2  0
  6  7  1  0
  7  8  2  0
  6  9  1  0
  4 10  1  0
 10 11  1  0
 11 12  1  0
  8  3  1  0
M  END

