
     RDKit          3D

 20 21  0  0  0  0  0  0  0  0999 V2000
    5.6842    0.5857   -0.4961 C   0  0  0  0  0  0  0  0  0  0  0  0
    4.2583    0.2027   -0.0393 C   0  0  0  0  0  0  0  0  0  0  0  0
    3.5201    1.4991    0.0438 C   0  0  0  0  0  0  0  0  0  0  0  0
    1.9991    1.3442    0.0178 C   0  0  0  0  0  0  0  0  0  0  0  0
    1.7234   -0.1041    0.2840 C   0  0  0  0  0  0  0  0  0  0  0  0
    2.2184   -0.9835   -0.8432 C   0  0  0  0  0  0  0  0  0  0  0  0
    3.6990   -0.7827   -1.0371 C   0  0  0  0  0  0  0  0  0  0  0  0
    0.4316   -0.4705    0.8640 C   0  0  0  0  0  0  0  0  0  0  0  0
    0.4817   -2.0133    1.0204 C   0  0  0  0  0  0  0  0  0  0  0  0
    0.4984    0.0003    2.3336 C   0  0  0  0  0  0  0  0  0  0  0  0
   -0.8656   -0.1172    0.3337 C   0  0  0  0  0  0  0  0  0  0  0  0
   -1.1164    1.3728    0.2416 C   0  0  0  0  0  0  0  0  0  0  0  0
   -2.6406    1.5941    0.3551 C   0  0  0  0  0  0  0  0  0  0  0  0
   -3.3204    0.8111   -0.7331 C   0  0  0  0  0  0  0  0  0  0  0  0
   -2.3736    0.1266   -1.6626 C   0  0  0  0  0  0  0  0  0  0  0  0
   -1.3373   -0.7324   -0.9376 C   0  0  0  0  0  0  0  0  0  0  0  0
   -4.2920   -0.0575   -0.1870 O   0  0  0  0  0  0  0  0  0  0  0  0
   -5.6483    0.0857   -0.4369 C   0  0  0  0  0  0  0  0  0  0  0  0
   -6.0059    1.0280   -1.1781 O   0  0  0  0  0  0  0  0  0  0  0  0
   -6.6784   -0.8144    0.1265 C   0  0  0  0  0  0  0  0  0  0  0  0
  1  2  1  0
  2  3  1  0
  3  4  1  0
  4  5  1  0
  5  6  1  0
  6  7  1  0
  5  8  1  0
  8  9  1  0
  8 10  1  0
  8 11  1  0
 11 12  1  0
 12 13  1  0
 13 14  1  0
 14 15  1  0
 15 16  1  0
 14 17  1  0
 17 18  1  0
 18 19  2  0
 18 20  1  0
  7  2  1  0
 16 11  1  0
M  END

