
     RDKit          3D

 22 23  0  0  0  0  0  0  0  0999 V2000
    5.8086    0.5315    0.7961 C   0  0  0  0  0  0  0  0  0  0  0  0
    5.1514   -0.4201   -0.1492 C   0  0  0  0  0  0  0  0  0  0  0  0
    3.7020   -0.1339   -0.3870 C   0  0  0  0  0  0  0  0  0  0  0  0
    2.8742   -0.1919    0.8675 C   0  0  0  0  0  0  0  0  0  0  0  0
    1.5064    0.0864    0.5479 N   0  0  0  0  0  0  0  0  0  0  0  0
    1.1145    1.3762    0.5511 C   0  0  0  0  0  0  0  0  0  0  0  0
    1.9062    2.3296    0.8163 O   0  0  0  0  0  0  0  0  0  0  0  0
   -0.1897    1.6266    0.2531 C   0  0  0  0  0  0  0  0  0  0  0  0
   -1.1369    0.6404   -0.0524 C   0  0  0  0  0  0  0  0  0  0  0  0
   -0.6981   -0.6591   -0.0467 C   0  0  0  0  0  0  0  0  0  0  0  0
    0.6473   -0.8887    0.2642 C   0  0  0  0  0  0  0  0  0  0  0  0
    1.0776   -2.2266    0.2695 O   0  0  0  0  0  0  0  0  0  0  0  0
   -1.5409   -1.7829   -0.3699 C   0  0  0  0  0  0  0  0  0  0  0  0
   -1.0573   -2.9355   -0.3641 O   0  0  0  0  0  0  0  0  0  0  0  0
   -2.8693   -1.6804   -0.6952 O   0  0  0  0  0  0  0  0  0  0  0  0
   -3.7031   -2.7809   -1.0169 C   0  0  0  0  0  0  0  0  0  0  0  0
   -2.5133    1.0157   -0.3026 C   0  0  0  0  0  0  0  0  0  0  0  0
   -2.8530    1.8241   -1.3598 C   0  0  0  0  0  0  0  0  0  0  0  0
   -4.1689    2.2194   -1.5755 C   0  0  0  0  0  0  0  0  0  0  0  0
   -5.1636    1.8089   -0.7330 C   0  0  0  0  0  0  0  0  0  0  0  0
   -4.8395    0.9975    0.3328 C   0  0  0  0  0  0  0  0  0  0  0  0
   -3.5083    0.6067    0.5386 C   0  0  0  0  0  0  0  0  0  0  0  0
  1  2  1  0
  2  3  1  0
  3  4  1  0
  4  5  1  0
  5  6  1  0
  6  7  2  0
  6  8  1  0
  8  9  2  0
  9 10  1  0
 10 11  2  0
 11 12  1  0
 10 13  1  0
 13 14  2  0
 13 15  1  0
 15 16  1  0
  9 17  1  0
 17 18  2  0
 18 19  1  0
 19 20  2  0
 20 21  1  0
 21 22  2  0
 11  5  1  0
 22 17  1  0
M  END

