
     RDKit          3D

 12 11  0  0  0  0  0  0  0  0999 V2000
   -2.0182    1.0265    1.9602 N   0  0  0  0  0  0  0  0  0  0  0  0
   -0.9307    0.4953    1.2517 C   0  0  0  0  0  0  0  0  0  0  0  0
   -0.7310    0.2970   -0.0145 C   0  0  0  0  0  0  0  0  0  0  0  0
   -1.5939    0.5696   -1.1380 C   0  0  0  0  0  0  0  0  0  0  0  0
   -2.8962    1.1743   -0.9735 C   0  0  0  0  0  0  0  0  0  0  0  0
   -3.4858    1.5477   -0.0211 O   0  0  0  0  0  0  0  0  0  0  0  0
    0.6067   -0.3087   -0.3262 C   0  0  0  0  0  0  0  0  0  0  0  0
    1.5392   -0.6176    0.8191 C   0  0  0  0  0  0  0  0  0  0  0  0
    2.7917   -1.2021    0.2270 C   0  0  0  0  0  0  0  0  0  0  0  0
    3.6571   -1.4878    1.3016 O   0  0  0  0  0  0  0  0  0  0  0  0
    0.9427   -0.5535   -1.4947 N   0  0  0  0  0  0  0  0  0  0  0  0
    0.3225   -0.3824   -2.6409 O   0  0  0  0  0  0  0  0  0  0  0  0
  1  2  1  0
  2  3  2  3
  3  4  1  0
  4  5  1  0
  5  6  2  0
  3  7  1  0
  7  8  1  0
  8  9  1  0
  9 10  1  0
  7 11  2  3
 11 12  1  0
M  END

