
     RDKit          3D

 13 12  0  0  0  0  0  0  0  0999 V2000
    4.4521    0.9247   -0.4179 N   0  0  0  0  0  0  0  0  0  0  0  0
    4.1670    0.6099   -1.7363 N   0  0  0  0  0  0  0  0  0  0  0  0
    3.0392    0.1285   -2.1328 C   0  0  0  0  0  0  0  0  0  0  0  0
    1.9257   -0.1480   -1.2710 C   0  0  0  0  0  0  0  0  0  0  0  0
    1.0002   -0.3783   -0.5323 C   0  0  0  0  0  0  0  0  0  0  0  0
   -0.1253   -0.6491    0.3944 C   0  0  0  0  0  0  0  0  0  0  0  0
   -1.3397   -0.4537   -0.3739 N   0  0  0  0  0  0  0  0  0  0  0  0
   -1.6636    0.7629   -0.9760 N   0  0  0  0  0  0  0  0  0  0  0  0
   -2.4430    1.5810   -0.3589 C   0  0  0  0  0  0  0  0  0  0  0  0
   -2.9820    1.2513    0.9448 C   0  0  0  0  0  0  0  0  0  0  0  0
   -3.7770    2.0766    1.5834 C   0  0  0  0  0  0  0  0  0  0  0  0
   -0.0772   -2.0475    0.8732 C   0  0  0  0  0  0  0  0  0  0  0  0
    0.5285   -3.0242    0.2267 C   0  0  0  0  0  0  0  0  0  0  0  0
  1  2  1  0
  2  3  2  3
  3  4  1  0
  4  5  3  0
  5  6  1  0
  6  7  1  0
  7  8  1  0
  8  9  2  3
  9 10  1  0
 10 11  2  0
  6 12  1  0
 12 13  2  0
M  END

