CC(C)NC(=O)C1=CC=C(C=C1)N=CC2=CC=CC=C2O
     RDKit          3D

 21 22  0  0  0  0  0  0  0  0999 V2000
   -6.0166   -1.2020    0.6927 C   0  0  0  0  0  0  0  0  0  0  0  0
   -5.5238    0.0698    0.0449 C   0  0  0  0  0  0  0  0  0  0  0  0
   -6.2715    0.2662   -1.2320 C   0  0  0  0  0  0  0  0  0  0  0  0
   -4.0978   -0.0266   -0.1352 N   0  0  0  0  0  0  0  0  0  0  0  0
   -3.2091    0.8562    0.4783 C   0  0  0  0  0  0  0  0  0  0  0  0
   -3.6720    1.7728    1.2182 O   0  0  0  0  0  0  0  0  0  0  0  0
   -1.7675    0.7873    0.3182 C   0  0  0  0  0  0  0  0  0  0  0  0
   -1.1794   -0.1743   -0.4653 C   0  0  0  0  0  0  0  0  0  0  0  0
    0.2133   -0.2286   -0.6105 C   0  0  0  0  0  0  0  0  0  0  0  0
    1.0429    0.6720    0.0209 C   0  0  0  0  0  0  0  0  0  0  0  0
    0.4528    1.6383    0.8082 C   0  0  0  0  0  0  0  0  0  0  0  0
   -0.9169    1.6903    0.9499 C   0  0  0  0  0  0  0  0  0  0  0  0
    2.4597    0.6297   -0.1169 N   0  0  0  0  0  0  0  0  0  0  0  0
    3.0998   -0.4294    0.1400 C   0  0  0  0  0  0  0  0  0  0  0  0
    4.5463   -0.4841    0.0029 C   0  0  0  0  0  0  0  0  0  0  0  0
    5.2071   -1.6852    0.3011 C   0  0  0  0  0  0  0  0  0  0  0  0
    6.5542   -1.7858    0.1887 C   0  0  0  0  0  0  0  0  0  0  0  0
    7.3415   -0.7323   -0.2183 C   0  0  0  0  0  0  0  0  0  0  0  0
    6.6911    0.4362   -0.5077 C   0  0  0  0  0  0  0  0  0  0  0  0
    5.2925    0.5928   -0.4069 C   0  0  0  0  0  0  0  0  0  0  0  0
    4.7522    1.8029   -0.7207 O   0  0  0  0  0  0  0  0  0  0  0  0
  1  2  1  0
  2  3  1  0
  2  4  1  0
  4  5  1  0
  5  6  2  0
  5  7  1  0
  7  8  2  0
  8  9  1  0
  9 10  2  0
 10 11  1  0
 11 12  2  0
 10 13  1  0
 13 14  2  3
 14 15  1  0
 15 16  2  0
 16 17  1  0
 17 18  2  0
 18 19  1  0
 19 20  2  0
 20 21  1  0
 12  7  1  0
 20 15  1  0
M  END

