
     RDKit          3D

 13 14  0  0  0  0  0  0  0  0999 V2000
   -2.6288    1.7584   -1.9890 O   0  0  0  0  0  0  0  0  0  0  0  0
   -2.2439    1.5963   -0.5522 S   0  0  0  0  0  6  0  0  0  0  0  0
   -2.1746    2.8776    0.1915 O   0  0  0  0  0  0  0  0  0  0  0  0
   -3.1969    0.4011    0.2281 N   0  0  0  0  0  0  0  0  0  0  0  0
   -2.4471   -0.5521    0.5423 C   0  0  0  0  0  0  0  0  0  0  0  0
   -1.0482   -0.4266    0.1953 C   0  0  0  0  0  0  0  0  0  0  0  0
   -0.7356    0.6744   -0.4082 C   0  0  0  0  0  0  0  0  0  0  0  0
    0.5372    0.9724   -0.8140 O   0  0  0  0  0  0  0  0  0  0  0  0
    1.5819    0.1025   -0.6008 C   0  0  0  0  0  0  0  0  0  0  0  0
    1.3214   -1.0319    0.0084 C   0  0  0  0  0  0  0  0  0  0  0  0
    0.0130   -1.4327    0.4719 C   0  0  0  0  0  0  0  0  0  0  0  0
    2.9255    0.4310   -1.0360 C   0  0  0  0  0  0  0  0  0  0  0  0
    4.0424    0.7155   -1.3828 C   0  0  0  0  0  0  0  0  0  0  0  0
  1  2  2  0
  2  3  2  0
  2  4  1  0
  4  5  2  0
  5  6  1  0
  6  7  2  0
  7  8  1  0
  8  9  1  0
  9 10  2  0
 10 11  1  0
  9 12  1  0
 12 13  3  0
  7  2  1  0
 11  6  1  0
M  END

