
     RDKit          3D

 20 20  0  0  0  0  0  0  0  0999 V2000
   -5.1558   -0.6286    0.7118 C   0  0  0  0  0  0  0  0  0  0  0  0
   -4.7694    0.6706    1.4057 C   0  0  0  0  0  0  0  0  0  0  0  0
   -3.5516    1.3018    0.7581 C   0  0  0  0  0  0  0  0  0  0  0  0
   -2.3777    0.4028    0.8160 C   0  0  0  0  0  0  0  0  0  0  0  0
   -2.4848   -0.7428    1.3580 O   0  0  0  0  0  0  0  0  0  0  0  0
   -1.0868    0.7827    0.2696 C   0  0  0  0  0  0  0  0  0  0  0  0
   -0.0016   -0.0903    0.3400 C   0  0  0  0  0  0  0  0  0  0  0  0
    1.2413    0.2255   -0.1647 C   0  0  0  0  0  0  0  0  0  0  0  0
    1.4092    1.4528   -0.7599 C   0  0  0  0  0  0  0  0  0  0  0  0
    0.3483    2.3206   -0.8351 C   0  0  0  0  0  0  0  0  0  0  0  0
   -0.9028    1.9990   -0.3254 C   0  0  0  0  0  0  0  0  0  0  0  0
   -1.9528    2.8915   -0.4146 O   0  0  0  0  0  0  0  0  0  0  0  0
    2.6439    1.7849   -1.2695 O   0  0  0  0  0  0  0  0  0  0  0  0
    2.8026    3.0508   -1.8791 C   0  0  0  0  0  0  0  0  0  0  0  0
    2.3188   -0.6626   -0.0854 O   0  0  0  0  0  0  0  0  0  0  0  0
    2.1696   -1.9315    0.5229 C   0  0  0  0  0  0  0  0  0  0  0  0
    3.4826   -2.6227    0.4456 C   0  0  0  0  0  0  0  0  0  0  0  0
    4.4825   -2.1016   -0.0794 O   0  0  0  0  0  0  0  0  0  0  0  0
    3.6551   -3.9147    0.9700 O   0  0  0  0  0  0  0  0  0  0  0  0
    4.9144   -4.5730    0.8937 C   0  0  0  0  0  0  0  0  0  0  0  0
  1  2  1  0
  2  3  1  0
  3  4  1  0
  4  5  2  0
  4  6  1  0
  6  7  2  0
  7  8  1  0
  8  9  2  0
  9 10  1  0
 10 11  2  0
 11 12  1  0
  9 13  1  0
 13 14  1  0
  8 15  1  0
 15 16  1  0
 16 17  1  0
 17 18  2  0
 17 19  1  0
 19 20  1  0
 11  6  1  0
M  END

