
     RDKit          3D

 15 16  0  0  0  0  0  0  0  0999 V2000
   -0.0641   -1.8177   -0.2017 C   0  0  0  0  0  0  0  0  0  0  0  0
   -1.4276   -1.8280   -0.2049 C   0  0  0  0  0  0  0  0  0  0  0  0
   -2.1401   -0.6021   -0.0596 C   0  0  0  0  0  0  0  0  0  0  0  0
   -1.4552    0.5705    0.0813 C   0  0  0  0  0  0  0  0  0  0  0  0
   -0.0374    0.5310    0.0786 C   0  0  0  0  0  0  0  0  0  0  0  0
    0.6537   -0.6400   -0.0601 C   0  0  0  0  0  0  0  0  0  0  0  0
    2.1174   -0.6716   -0.0618 C   0  0  0  0  0  0  0  0  0  0  0  0
    2.9237    0.4371    0.0716 C   0  0  0  0  0  0  0  0  0  0  0  0
    4.2491    0.0211    0.0239 C   0  0  0  0  0  0  0  0  0  0  0  0
    4.1678   -1.3111   -0.1352 N   0  0  0  0  0  0  0  0  0  0  0  0
    2.9244   -1.6921   -0.1825 O   0  0  0  0  0  0  0  0  0  0  0  0
   -2.1118    1.8390    0.2317 C   0  0  0  0  0  0  0  0  0  0  0  0
   -1.4051    2.8949    0.3586 O   0  0  0  0  0  0  0  0  0  0  0  0
   -3.4563    2.0119    0.2504 O   0  0  0  0  0  0  0  0  0  0  0  0
   -3.5062   -0.6811   -0.0710 O   0  0  0  0  0  0  0  0  0  0  0  0
  1  2  2  0
  2  3  1  0
  3  4  2  0
  4  5  1  0
  5  6  2  0
  6  7  1  0
  7  8  2  0
  8  9  1  0
  9 10  2  0
 10 11  1  0
  4 12  1  0
 12 13  2  0
 12 14  1  0
  3 15  1  0
  6  1  1  0
 11  7  1  0
M  END

