
     RDKit          3D

 17 19  0  0  0  0  0  0  0  0999 V2000
    3.7092   -0.6666   -0.0192 C   0  0  0  0  0  0  0  0  0  0  0  0
    3.6592    0.7247   -0.1149 C   0  0  0  0  0  0  0  0  0  0  0  0
    2.4205    1.3296   -0.1820 C   0  0  0  0  0  0  0  0  0  0  0  0
    1.2409    0.5937   -0.1566 C   0  0  0  0  0  0  0  0  0  0  0  0
    1.2838   -0.7911   -0.0614 C   0  0  0  0  0  0  0  0  0  0  0  0
    2.5260   -1.3738    0.0042 C   0  0  0  0  0  0  0  0  0  0  0  0
    0.1413   -1.5132   -0.0362 N   0  0  0  0  0  0  0  0  0  0  0  0
   -1.0500   -0.8656   -0.1052 C   0  0  0  0  0  0  0  0  0  0  0  0
   -2.2128   -1.5895   -0.0802 C   0  0  0  0  0  0  0  0  0  0  0  0
   -3.4624   -1.0017   -0.1464 C   0  0  0  0  0  0  0  0  0  0  0  0
   -3.5108    0.3782   -0.2413 C   0  0  0  0  0  0  0  0  0  0  0  0
   -2.3498    1.1227   -0.2677 C   0  0  0  0  0  0  0  0  0  0  0  0
   -1.1199    0.5089   -0.2002 C   0  0  0  0  0  0  0  0  0  0  0  0
    0.0393    1.1876   -0.2221 N   0  0  0  0  0  0  0  0  0  0  0  0
   -2.3994    2.5059   -0.3629 O   0  0  0  0  0  0  0  0  0  0  0  0
   -5.0570    1.1875   -0.3288 Cl  0  0  0  0  0  0  0  0  0  0  0  0
   -2.1593   -3.3365    0.0398 Cl  0  0  0  0  0  0  0  0  0  0  0  0
  1  2  2  0
  2  3  1  0
  3  4  2  0
  4  5  1  0
  5  6  2  0
  5  7  1  0
  7  8  2  0
  8  9  1  0
  9 10  2  0
 10 11  1  0
 11 12  2  0
 12 13  1  0
 13 14  2  0
 12 15  1  0
 11 16  1  0
  9 17  1  0
  6  1  1  0
 14  4  1  0
 13  8  1  0
M  END

