C1COCCN1/N=C/2\C3=C(C=CC(=C3)F)NC2=O
     RDKit          3D

 18 20  0  0  0  0  0  0  0  0999 V2000
   -1.9192    1.3276    0.3201 C   0  0  0  0  0  0  0  0  0  0  0  0
   -2.7162    0.6701    1.4500 C   0  0  0  0  0  0  0  0  0  0  0  0
   -3.8219    0.0770    0.8950 O   0  0  0  0  0  0  0  0  0  0  0  0
   -3.5324   -0.7989   -0.1222 C   0  0  0  0  0  0  0  0  0  0  0  0
   -2.0183   -1.0429   -0.1935 C   0  0  0  0  0  0  0  0  0  0  0  0
   -1.4571    0.2508   -0.5329 N   0  0  0  0  0  0  0  0  0  0  0  0
   -0.6199    0.3515   -1.5933 N   0  0  0  0  0  0  0  0  0  0  0  0
    0.6442    0.2610   -1.5550 C   0  0  0  0  0  0  0  0  0  0  0  0
    1.4694    0.0320   -0.3827 C   0  0  0  0  0  0  0  0  0  0  0  0
    2.8059    0.0059   -0.8128 C   0  0  0  0  0  0  0  0  0  0  0  0
    3.8023   -0.1974    0.1082 C   0  0  0  0  0  0  0  0  0  0  0  0
    3.5171   -0.3739    1.4295 C   0  0  0  0  0  0  0  0  0  0  0  0
    2.1849   -0.3448    1.8377 C   0  0  0  0  0  0  0  0  0  0  0  0
    1.1599   -0.1435    0.9429 C   0  0  0  0  0  0  0  0  0  0  0  0
    1.9324   -0.5236    3.1604 F   0  0  0  0  0  0  0  0  0  0  0  0
    2.8826    0.2086   -2.2175 N   0  0  0  0  0  0  0  0  0  0  0  0
    1.5697    0.3691   -2.7053 C   0  0  0  0  0  0  0  0  0  0  0  0
    1.1833    0.5689   -3.8799 O   0  0  0  0  0  0  0  0  0  0  0  0
  1  2  1  0
  2  3  1  0
  3  4  1  0
  4  5  1  0
  5  6  1  0
  6  7  1  0
  7  8  2  0
  8  9  1  0
  9 10  1  0
 10 11  2  0
 11 12  1  0
 12 13  2  0
 13 14  1  0
 13 15  1  0
 10 16  1  0
 16 17  1  0
 17 18  2  0
  6  1  1  0
 17  8  1  0
 14  9  2  0
M  END

