C1=CN2C(=CC=N2)C(=C1)C(=O)NN
     RDKit          3D

 13 14  0  0  0  0  0  0  0  0999 V2000
   -0.9445   -2.2210    0.8124 C   0  0  0  0  0  0  0  0  0  0  0  0
   -2.1147   -1.5079    0.7450 C   0  0  0  0  0  0  0  0  0  0  0  0
   -2.1911   -0.2438    0.2959 N   0  0  0  0  0  0  0  0  0  0  0  0
   -1.0487    0.3427   -0.1069 C   0  0  0  0  0  0  0  0  0  0  0  0
   -1.4212    1.6191   -0.5116 C   0  0  0  0  0  0  0  0  0  0  0  0
   -2.7802    1.7651   -0.3407 C   0  0  0  0  0  0  0  0  0  0  0  0
   -3.2207    0.5979    0.1583 N   0  0  0  0  0  0  0  0  0  0  0  0
    0.1704   -0.2985   -0.0738 C   0  0  0  0  0  0  0  0  0  0  0  0
    0.2181   -1.5964    0.3924 C   0  0  0  0  0  0  0  0  0  0  0  0
    1.3649    0.3937   -0.5238 C   0  0  0  0  0  0  0  0  0  0  0  0
    1.2650    1.1716   -1.5057 O   0  0  0  0  0  0  0  0  0  0  0  0
    2.6307    0.2412    0.0800 N   0  0  0  0  0  0  0  0  0  0  0  0
    3.7520    0.9241   -0.3827 N   0  0  0  0  0  0  0  0  0  0  0  0
  1  2  2  0
  2  3  1  0
  3  4  1  0
  4  5  2  0
  5  6  1  0
  6  7  2  0
  4  8  1  0
  8  9  2  0
  8 10  1  0
 10 11  2  0
 10 12  1  0
 12 13  1  0
  9  1  1  0
  7  3  1  0
M  END

