
     RDKit          3D

 13 13  0  0  0  0  0  0  0  0999 V2000
    0.5389   -1.6865   -2.3098 C   0  0  0  0  0  0  0  0  0  0  0  0
    0.6249   -0.2032   -2.0426 C   0  0  0  0  0  0  0  0  0  0  0  0
    0.8170    0.1041   -0.6461 N   0  0  0  0  0  0  0  0  0  0  0  0
   -0.2746    0.3147    0.2732 C   0  0  0  0  0  0  0  0  0  0  0  0
   -1.1875    1.4544   -0.1623 C   0  0  0  0  0  0  0  0  0  0  0  0
   -2.3781    1.1909    0.7419 C   0  0  0  0  0  0  0  0  0  0  0  0
   -2.3484   -0.1961    1.1040 N   0  0  0  0  0  0  0  0  0  0  0  0
   -3.6226   -0.7985    0.7376 C   0  0  0  0  0  0  0  0  0  0  0  0
   -1.2570   -0.8103    0.3280 C   0  0  0  0  0  0  0  0  0  0  0  0
    2.1272    0.2123   -0.1179 C   0  0  0  0  0  0  0  0  0  0  0  0
    3.0906    0.0348   -0.8924 O   0  0  0  0  0  0  0  0  0  0  0  0
    2.4367    0.5227    1.2954 C   0  0  0  0  0  0  0  0  0  0  0  0
    3.9219    0.5648    1.5297 C   0  0  0  0  0  0  0  0  0  0  0  0
  1  2  1  0
  2  3  1  0
  3  4  1  0
  4  5  1  0
  5  6  1  0
  6  7  1  0
  7  8  1  0
  7  9  1  0
  3 10  1  0
 10 11  2  0
 10 12  1  0
 12 13  1  0
  9  4  1  0
M  END

