CCCON=P(N(C)C)(N(C)C)N(C)COC1=CC=CC=C1
     RDKit          3D

 22 22  0  0  0  0  0  0  0  0999 V2000
   -3.0511    3.1074    2.3990 C   0  0  0  0  0  0  0  0  0  0  0  0
   -2.7075    1.6614    2.5746 C   0  0  0  0  0  0  0  0  0  0  0  0
   -2.4910    1.0483    1.2130 C   0  0  0  0  0  0  0  0  0  0  0  0
   -2.1587   -0.3372    1.3125 O   0  0  0  0  0  0  0  0  0  0  0  0
   -1.9161   -1.1187    0.2435 N   0  0  0  0  0  0  0  0  0  0  0  0
   -0.7026   -0.9803   -0.7539 P   0  0  0  0  0  5  0  0  0  0  0  0
   -0.8690    0.3873   -1.8221 N   0  0  0  0  0  0  0  0  0  0  0  0
   -2.2195    0.7057   -2.1581 C   0  0  0  0  0  0  0  0  0  0  0  0
   -0.1078    0.1888   -3.0344 C   0  0  0  0  0  0  0  0  0  0  0  0
   -0.7023   -2.4197   -1.7502 N   0  0  0  0  0  0  0  0  0  0  0  0
   -1.9195   -2.4012   -2.5364 C   0  0  0  0  0  0  0  0  0  0  0  0
   -0.7754   -3.5508   -0.8466 C   0  0  0  0  0  0  0  0  0  0  0  0
    0.8241   -0.8783    0.0209 N   0  0  0  0  0  0  0  0  0  0  0  0
    1.6952   -1.8989   -0.5044 C   0  0  0  0  0  0  0  0  0  0  0  0
    0.8242   -0.8707    1.4419 C   0  0  0  0  0  0  0  0  0  0  0  0
    2.1707   -0.7816    1.8762 O   0  0  0  0  0  0  0  0  0  0  0  0
    3.0012    0.2753    1.5511 C   0  0  0  0  0  0  0  0  0  0  0  0
    2.5694    1.3248    0.7738 C   0  0  0  0  0  0  0  0  0  0  0  0
    3.4185    2.3778    0.4578 C   0  0  0  0  0  0  0  0  0  0  0  0
    4.7071    2.3916    0.9158 C   0  0  0  0  0  0  0  0  0  0  0  0
    5.1405    1.3428    1.6934 C   0  0  0  0  0  0  0  0  0  0  0  0
    4.2846    0.2845    2.0100 C   0  0  0  0  0  0  0  0  0  0  0  0
  1  2  1  0
  2  3  1  0
  3  4  1  0
  4  5  1  0
  5  6  2  3
  6  7  1  0
  7  8  1  0
  7  9  1  0
  6 10  1  0
 10 11  1  0
 10 12  1  0
  6 13  1  0
 13 14  1  0
 13 15  1  0
 15 16  1  0
 16 17  1  0
 17 18  2  0
 18 19  1  0
 19 20  2  0
 20 21  1  0
 21 22  2  0
 22 17  1  0
M  END

