
     RDKit          3D

 20 22  0  0  0  0  0  0  0  0999 V2000
    3.8955    2.5132   -1.4941 C   0  0  0  0  0  0  0  0  0  0  0  0
    3.0433    1.6541   -0.7722 O   0  0  0  0  0  0  0  0  0  0  0  0
    3.5631    0.4873   -0.2491 C   0  0  0  0  0  0  0  0  0  0  0  0
    4.9101    0.1499   -0.4242 C   0  0  0  0  0  0  0  0  0  0  0  0
    5.4056   -1.0214    0.1081 C   0  0  0  0  0  0  0  0  0  0  0  0
    4.5559   -1.8484    0.8111 C   0  0  0  0  0  0  0  0  0  0  0  0
    3.2293   -1.4996    0.9740 C   0  0  0  0  0  0  0  0  0  0  0  0
    2.7100   -0.3360    0.4526 C   0  0  0  0  0  0  0  0  0  0  0  0
    1.3466    0.0193    0.6220 N   0  0  0  0  0  0  0  0  0  0  0  0
    0.2516   -1.0434    1.5260 S   0  0  0  0  0  0  0  0  0  0  0  0
   -1.3578   -0.8916    0.7851 C   0  0  0  0  0  0  0  0  0  0  0  0
   -2.2413    0.0592    1.2342 C   0  0  0  0  0  0  0  0  0  0  0  0
   -3.5102    0.2123    0.6831 C   0  0  0  0  0  0  0  0  0  0  0  0
   -4.3886    1.1750    1.1467 C   0  0  0  0  0  0  0  0  0  0  0  0
   -5.6468    1.3247    0.5982 C   0  0  0  0  0  0  0  0  0  0  0  0
   -5.9905    0.4737   -0.4316 C   0  0  0  0  0  0  0  0  0  0  0  0
   -5.1136   -0.4948   -0.9018 C   0  0  0  0  0  0  0  0  0  0  0  0
   -3.8566   -0.6362   -0.3457 C   0  0  0  0  0  0  0  0  0  0  0  0
   -2.9820   -1.6034   -0.8159 C   0  0  0  0  0  0  0  0  0  0  0  0
   -1.7138   -1.7321   -0.2411 C   0  0  0  0  0  0  0  0  0  0  0  0
  1  2  1  0
  2  3  1  0
  3  4  2  0
  4  5  1  0
  5  6  2  0
  6  7  1  0
  7  8  2  0
  8  9  1  0
  9 10  1  0
 10 11  1  0
 11 12  2  0
 12 13  1  0
 13 14  2  0
 14 15  1  0
 15 16  2  0
 16 17  1  0
 17 18  2  0
 18 19  1  0
 19 20  2  0
  8  3  1  0
 20 11  1  0
 18 13  1  0
M  END

