CC1=CN=C(N=CNN)C(=C)C=C1
     RDKit          3D

 13 13  0  0  0  0  0  0  0  0999 V2000
   -3.8914    1.2147    0.8907 C   0  0  0  0  0  0  0  0  0  0  0  0
   -2.5609    0.6646    0.5115 C   0  0  0  0  0  0  0  0  0  0  0  0
   -1.5586    1.4988    0.7079 C   0  0  0  0  0  0  0  0  0  0  0  0
   -0.1484    1.3483    0.4730 N   0  0  0  0  0  0  0  0  0  0  0  0
    0.4589    0.3542   -0.1175 C   0  0  0  0  0  0  0  0  0  0  0  0
    1.8645    0.5301   -0.1801 N   0  0  0  0  0  0  0  0  0  0  0  0
    2.6105   -0.2815    0.4921 C   0  0  0  0  0  0  0  0  0  0  0  0
    4.0199   -0.0602    0.3943 N   0  0  0  0  0  0  0  0  0  0  0  0
    4.5263    0.1690   -0.8830 N   0  0  0  0  0  0  0  0  0  0  0  0
   -0.1155   -0.8558   -0.6912 C   0  0  0  0  0  0  0  0  0  0  0  0
    0.6978   -1.5594   -1.4288 C   0  0  0  0  0  0  0  0  0  0  0  0
   -1.4737   -1.3559   -0.5337 C   0  0  0  0  0  0  0  0  0  0  0  0
   -2.4952   -0.6873   -0.0186 C   0  0  0  0  0  0  0  0  0  0  0  0
  1  2  1  0
  2  3  2  0
  3  4  1  0
  4  5  2  0
  5  6  1  0
  6  7  2  3
  7  8  1  0
  8  9  1  0
  5 10  1  0
 10 11  2  0
 10 12  1  0
 12 13  2  0
 13  2  1  0
M  END

