
     RDKit          3D

 17 18  0  0  0  0  0  0  0  0999 V2000
   -1.2317   -2.4156   -0.1905 C   0  0  0  0  0  0  0  0  0  0  0  0
   -0.4342   -1.2103   -0.5626 C   0  0  0  0  0  0  0  0  0  0  0  0
    0.2024   -1.4896   -1.7842 O   0  0  0  0  0  0  0  0  0  0  0  0
   -1.2475    0.0238   -0.7601 C   0  0  0  0  0  0  0  0  0  0  0  0
   -2.0165    0.4296    0.4746 C   0  0  0  0  0  0  0  0  0  0  0  0
   -2.8082    1.6882    0.1753 C   0  0  0  0  0  0  0  0  0  0  0  0
   -3.5383    2.1227    1.2555 O   0  0  0  0  0  0  0  0  0  0  0  0
   -2.1155   -0.1387   -1.9164 C   0  0  0  0  0  0  0  0  0  0  0  0
   -2.8373   -0.2590   -2.8774 C   0  0  0  0  0  0  0  0  0  0  0  0
    0.6387   -1.0162    0.4562 C   0  0  0  0  0  0  0  0  0  0  0  0
    0.8534   -1.6860    1.5581 O   0  0  0  0  0  0  0  0  0  0  0  0
    1.8976   -1.2117    2.1881 C   0  0  0  0  0  0  0  0  0  0  0  0
    2.4051   -0.1564    1.4493 C   0  0  0  0  0  0  0  0  0  0  0  0
    3.4779    0.8950    1.3867 C   0  0  0  0  0  0  0  0  0  0  0  0
    3.5365    1.1589   -0.1027 C   0  0  0  0  0  0  0  0  0  0  0  0
    2.0771    1.0924   -0.5251 C   0  0  0  0  0  0  0  0  0  0  0  0
    1.5998   -0.0368    0.3481 C   0  0  0  0  0  0  0  0  0  0  0  0
  1  2  1  0
  2  3  1  0
  2  4  1  0
  4  5  1  0
  5  6  1  0
  6  7  1  0
  4  8  1  0
  8  9  3  0
  2 10  1  0
 10 11  1  0
 11 12  1  0
 12 13  2  0
 13 14  1  0
 14 15  1  0
 15 16  1  0
 16 17  1  0
 17 10  2  0
 17 13  1  0
M  END

