
     RDKit          3D

 13 12  0  0  0  0  0  0  0  0999 V2000
   -1.5885    2.1876    0.2887 C   0  0  0  0  0  0  0  0  0  0  0  0
   -1.7248    0.8682   -0.3951 C   0  0  0  0  0  0  0  0  0  0  0  0
   -1.5528    1.0695   -1.7625 O   0  0  0  0  0  0  0  0  0  0  0  0
   -0.7894   -0.2076    0.1475 C   0  0  0  0  0  0  0  0  0  0  0  0
   -1.1754   -0.3500    1.6242 C   0  0  0  0  0  0  0  0  0  0  0  0
   -1.1020   -1.4619   -0.5764 C   0  0  0  0  0  0  0  0  0  0  0  0
   -0.4016   -2.5829   -0.2367 O   0  0  0  0  0  0  0  0  0  0  0  0
    0.6262    0.1898    0.0295 C   0  0  0  0  0  0  0  0  0  0  0  0
    0.9614    1.3439    0.7269 O   0  0  0  0  0  0  0  0  0  0  0  0
    1.6173   -0.8970    0.2185 C   0  0  0  0  0  0  0  0  0  0  0  0
    2.9946   -0.2645    0.0860 C   0  0  0  0  0  0  0  0  0  0  0  0
    3.4956   -0.0782   -1.2194 N   0  0  0  0  0  0  0  0  0  0  0  0
    3.6734    0.0856    1.0720 O   0  0  0  0  0  0  0  0  0  0  0  0
  1  2  1  0
  2  3  1  0
  2  4  1  0
  4  5  1  0
  4  6  1  0
  6  7  1  0
  4  8  1  0
  8  9  1  0
  8 10  1  0
 10 11  1  0
 11 12  1  0
 11 13  2  0
M  END

