
     RDKit          3D

 11 11  0  0  0  0  0  0  0  0999 V2000
    0.6107    1.0112    0.2553 C   0  0  0  0  0  0  0  0  0  0  0  0
    1.2824   -0.1911    0.2181 C   0  0  0  0  0  0  0  0  0  0  0  0
    0.5792   -1.3579   -0.0031 C   0  0  0  0  0  0  0  0  0  0  0  0
   -0.7599   -1.3406   -0.1842 N   0  0  0  0  0  0  0  0  0  0  0  0
   -1.4415   -0.1822   -0.1531 C   0  0  0  0  0  0  0  0  0  0  0  0
   -0.7582    1.0067    0.0678 C   0  0  0  0  0  0  0  0  0  0  0  0
   -1.4601    2.1623    0.0958 F   0  0  0  0  0  0  0  0  0  0  0  0
   -2.8759   -0.1273   -0.3431 C   0  0  0  0  0  0  0  0  0  0  0  0
   -4.0207   -0.0848   -0.4750 N   0  0  0  0  0  0  0  0  0  0  0  0
    2.7104   -0.2553    0.4063 C   0  0  0  0  0  0  0  0  0  0  0  0
    3.8659   -0.3024    0.5569 N   0  0  0  0  0  0  0  0  0  0  0  0
  1  2  2  0
  2  3  1  0
  3  4  2  0
  4  5  1  0
  5  6  2  0
  6  7  1  0
  5  8  1  0
  8  9  3  0
  2 10  1  0
 10 11  3  0
  6  1  1  0
M  END

