C1CCC(CC1)NC(=S)N/N=C\C2=CC=C(C=C2)O
     RDKit          3D

 19 20  0  0  0  0  0  0  0  0999 V2000
   -3.9134    1.7394    0.9000 C   0  0  0  0  0  0  0  0  0  0  0  0
   -4.4396    1.1008   -0.3793 C   0  0  0  0  0  0  0  0  0  0  0  0
   -3.3220    0.4937   -1.1471 C   0  0  0  0  0  0  0  0  0  0  0  0
   -2.4830   -0.4911   -0.3568 C   0  0  0  0  0  0  0  0  0  0  0  0
   -2.1325    0.0884    1.0069 C   0  0  0  0  0  0  0  0  0  0  0  0
   -3.3682    0.5973    1.7306 C   0  0  0  0  0  0  0  0  0  0  0  0
   -1.2357   -0.6618   -1.0745 N   0  0  0  0  0  0  0  0  0  0  0  0
   -0.2715   -1.6113   -0.6974 C   0  0  0  0  0  0  0  0  0  0  0  0
   -0.4742   -2.6205    0.5591 S   0  0  0  0  0  0  0  0  0  0  0  0
    0.9529   -1.7151   -1.4609 N   0  0  0  0  0  0  0  0  0  0  0  0
    1.8787   -2.6109   -1.1165 N   0  0  0  0  0  0  0  0  0  0  0  0
    2.9430   -2.4606   -0.4931 C   0  0  0  0  0  0  0  0  0  0  0  0
    3.4157   -1.1944    0.0151 C   0  0  0  0  0  0  0  0  0  0  0  0
    4.6528   -1.2631    0.6928 C   0  0  0  0  0  0  0  0  0  0  0  0
    5.1775   -0.1062    1.2090 C   0  0  0  0  0  0  0  0  0  0  0  0
    4.5559    1.1040    1.0953 C   0  0  0  0  0  0  0  0  0  0  0  0
    3.3605    1.1437    0.4353 C   0  0  0  0  0  0  0  0  0  0  0  0
    2.7859    0.0088   -0.1046 C   0  0  0  0  0  0  0  0  0  0  0  0
    5.1140    2.2543    1.6289 O   0  0  0  0  0  0  0  0  0  0  0  0
  1  2  1  0
  2  3  1  0
  3  4  1  0
  4  5  1  0
  5  6  1  0
  4  7  1  0
  7  8  1  0
  8  9  2  0
  8 10  1  0
 10 11  1  0
 11 12  2  0
 12 13  1  0
 13 14  2  0
 14 15  1  0
 15 16  2  0
 16 17  1  0
 17 18  2  0
 16 19  1  0
  6  1  1  0
 18 13  1  0
M  END

