
     RDKit          3D

 13 12  0  0  0  0  0  0  0  0999 V2000
   -3.6772   -0.6140   -0.1823 C   0  0  0  0  0  0  0  0  0  0  0  0
   -2.2362   -0.9730   -0.4017 C   0  0  0  0  0  0  0  0  0  0  0  0
   -2.0170   -1.2010   -1.7323 O   0  0  0  0  0  0  0  0  0  0  0  0
   -1.2848    0.0284    0.2155 C   0  0  0  0  0  0  0  0  0  0  0  0
   -1.4402    0.1550    1.6747 C   0  0  0  0  0  0  0  0  0  0  0  0
   -0.5851    1.1354    2.3099 C   0  0  0  0  0  0  0  0  0  0  0  0
    0.0814    1.9469    2.8336 N   0  0  0  0  0  0  0  0  0  0  0  0
    0.0698   -0.2096   -0.3490 C   0  0  0  0  0  0  0  0  0  0  0  0
    0.0202    0.0661   -1.8355 C   0  0  0  0  0  0  0  0  0  0  0  0
    1.2232    0.4635    0.2711 C   0  0  0  0  0  0  0  0  0  0  0  0
    2.5093    0.0879   -0.4342 C   0  0  0  0  0  0  0  0  0  0  0  0
    3.6054    0.8128    0.2894 C   0  0  0  0  0  0  0  0  0  0  0  0
    4.5859    0.1442    0.8643 C   0  0  0  0  0  0  0  0  0  0  0  0
  1  2  1  0
  2  3  1  0
  2  4  1  0
  4  5  1  0
  5  6  1  0
  6  7  3  0
  4  8  1  0
  8  9  1  0
  8 10  1  0
 10 11  1  0
 11 12  1  0
 12 13  2  0
M  END

