CC1CC(=CC=C)C(CN)(O1)C#C
     RDKit          3D

 13 13  0  0  0  0  0  0  0  0999 V2000
   -1.5104    2.8531   -0.1049 C   0  0  0  0  0  0  0  0  0  0  0  0
   -1.0302    1.5179    0.3877 C   0  0  0  0  0  0  0  0  0  0  0  0
    0.4792    1.3782    0.2367 C   0  0  0  0  0  0  0  0  0  0  0  0
    0.5993   -0.0774   -0.0382 C   0  0  0  0  0  0  0  0  0  0  0  0
    1.7287   -0.7596   -0.1365 C   0  0  0  0  0  0  0  0  0  0  0  0
    3.0046   -0.0832    0.0291 C   0  0  0  0  0  0  0  0  0  0  0  0
    4.1441   -0.7331   -0.0627 C   0  0  0  0  0  0  0  0  0  0  0  0
   -0.7868   -0.5729   -0.1724 C   0  0  0  0  0  0  0  0  0  0  0  0
   -1.2950   -1.2321    1.0802 C   0  0  0  0  0  0  0  0  0  0  0  0
   -2.6867   -1.6142    0.8129 N   0  0  0  0  0  0  0  0  0  0  0  0
   -1.5629    0.5269   -0.4390 O   0  0  0  0  0  0  0  0  0  0  0  0
   -0.8478   -1.5672   -1.2500 C   0  0  0  0  0  0  0  0  0  0  0  0
   -0.9142   -2.3807   -2.1472 C   0  0  0  0  0  0  0  0  0  0  0  0
  1  2  1  0
  2  3  1  0
  3  4  1  0
  4  5  2  3
  5  6  1  0
  6  7  2  0
  4  8  1  0
  8  9  1  0
  9 10  1  0
  8 11  1  0
  8 12  1  0
 12 13  3  0
 11  2  1  0
M  END

