
     RDKit          3D

 17 18  0  0  0  0  0  0  0  0999 V2000
    3.1200    0.5522   -0.8686 C   0  0  0  0  0  0  0  0  0  0  0  0
    2.3045   -0.1272    0.2095 C   0  0  0  0  0  0  0  0  0  0  0  0
    2.2762   -1.4712   -0.0233 O   0  0  0  0  0  0  0  0  0  0  0  0
    2.9341    0.1888    1.5090 C   0  0  0  0  0  0  0  0  0  0  0  0
    3.4208    0.4243    2.5259 N   0  0  0  0  0  0  0  0  0  0  0  0
    0.9659    0.5211    0.2283 C   0  0  0  0  0  0  0  0  0  0  0  0
    0.9573    1.7202    0.4339 O   0  0  0  0  0  0  0  0  0  0  0  0
   -0.3035   -0.1712    0.0212 C   0  0  0  0  0  0  0  0  0  0  0  0
   -0.5019   -1.2513    1.0667 C   0  0  0  0  0  0  0  0  0  0  0  0
   -1.4713   -0.6778    2.0490 C   0  0  0  0  0  0  0  0  0  0  0  0
   -1.7250    0.6249    1.6909 O   0  0  0  0  0  0  0  0  0  0  0  0
   -1.4365    0.7835    0.3585 C   0  0  0  0  0  0  0  0  0  0  0  0
   -2.5446    0.4190   -0.5659 C   0  0  0  0  0  0  0  0  0  0  0  0
   -3.3305    1.5004   -0.9433 O   0  0  0  0  0  0  0  0  0  0  0  0
   -1.8106   -0.0489   -1.8170 C   0  0  0  0  0  0  0  0  0  0  0  0
   -0.5402   -0.6448   -1.3386 C   0  0  0  0  0  0  0  0  0  0  0  0
    0.1684   -1.3912   -1.9717 O   0  0  0  0  0  0  0  0  0  0  0  0
  1  2  1  0
  2  3  1  0
  2  4  1  0
  4  5  3  0
  2  6  1  0
  6  7  2  0
  6  8  1  0
  8  9  1  0
  9 10  1  0
 10 11  1  0
 11 12  1  0
 12 13  1  0
 13 14  1  0
 13 15  1  0
 15 16  1  0
 16 17  2  0
 12  8  1  0
 16  8  1  0
M  END

