CC(NCC(=O)c1nn[n-]n1)c1ccc(C)[nH]1
     RDKit          3D

 17 18  0  0  0  0  0  0  0  0999 V2000
    0.1944    1.3580   -1.5247 C   0  0  0  0  0  0  0  0  0  0  0  0
    0.2562    0.2075   -0.5612 C   0  0  0  0  0  0  0  0  0  0  0  0
   -0.8919    0.1711    0.3199 N   0  0  0  0  0  0  0  0  0  0  0  0
   -2.0876   -0.0614   -0.4877 C   0  0  0  0  0  0  0  0  0  0  0  0
   -3.2563   -0.0446    0.4130 C   0  0  0  0  0  0  0  0  0  0  0  0
   -3.1193    0.1934    1.6264 O   0  0  0  0  0  0  0  0  0  0  0  0
   -4.6030   -0.3118   -0.1204 C   0  0  0  0  0  0  0  0  0  0  0  0
   -4.8593   -0.5868   -1.4249 N   0  0  0  0  0  0  0  0  0  0  0  0
   -6.1782   -0.7730   -1.5392 N   0  0  0  0  0  0  0  0  0  0  0  0
   -6.7626   -0.6257   -0.3558 N   0  0  0  0  0  2  0  0  0  0  0  0
   -5.7769   -0.3409    0.5111 N   0  0  0  0  0  0  0  0  0  0  0  0
    1.5302    0.1704    0.2250 C   0  0  0  0  0  0  0  0  0  0  0  0
    1.8285    0.8828    1.3678 C   0  0  0  0  0  0  0  0  0  0  0  0
    3.1135    0.5367    1.7372 C   0  0  0  0  0  0  0  0  0  0  0  0
    3.6058   -0.3827    0.8301 C   0  0  0  0  0  0  0  0  0  0  0  0
    4.9610   -1.0394    0.8282 C   0  0  0  0  0  0  0  0  0  0  0  0
    2.6106   -0.5745   -0.0681 N   0  0  0  0  0  0  0  0  0  0  0  0
  1  2  1  0
  2  3  1  0
  3  4  1  0
  4  5  1  0
  5  6  2  0
  5  7  1  0
  7  8  1  0
  8  9  2  0
  9 10  1  0
 10 11  1  0
  2 12  1  0
 12 13  2  0
 13 14  1  0
 14 15  2  0
 15 16  1  0
 15 17  1  0
 11  7  2  0
 17 12  1  0
M  CHG  1  10  -1
M  END

