
     RDKit          3D

 17 16  0  0  0  0  0  0  0  0999 V2000
   -3.8161    1.7662    1.3957 C   0  0  0  0  0  0  0  0  0  0  0  0
   -3.1965    0.9946    0.3197 C   0  0  0  0  0  0  0  0  0  0  0  0
   -3.9902    1.0266   -0.8502 O   0  0  0  0  0  0  0  0  0  0  0  0
   -2.6280   -0.3428    0.5871 C   0  0  0  0  0  0  0  0  0  0  0  0
   -3.5891   -1.3029    1.2034 C   0  0  0  0  0  0  0  0  0  0  0  0
   -4.7449   -1.4997    0.3031 C   0  0  0  0  0  0  0  0  0  0  0  0
   -5.7131   -1.6380   -0.4183 C   0  0  0  0  0  0  0  0  0  0  0  0
   -1.2366   -0.4434    1.0278 C   0  0  0  0  0  0  0  0  0  0  0  0
   -0.8689   -1.2676    1.8233 O   0  0  0  0  0  0  0  0  0  0  0  0
   -0.2402    0.5088    0.4285 C   0  0  0  0  0  0  0  0  0  0  0  0
    0.1093    0.1536   -0.8910 N   0  0  0  0  0  0  0  0  0  0  0  0
    1.4191   -0.2495   -1.2532 C   0  0  0  0  0  0  0  0  0  0  0  0
    2.3946    0.9167   -1.2257 C   0  0  0  0  0  0  0  0  0  0  0  0
    3.7732    0.5405   -1.6510 C   0  0  0  0  0  0  0  0  0  0  0  0
    4.4557   -0.3630   -0.8012 N   0  0  0  0  0  0  0  0  0  0  0  0
    4.7554    0.1831    0.4815 C   0  0  0  0  0  0  0  0  0  0  0  0
    5.5503   -0.7511    1.2570 N   0  0  0  0  0  0  0  0  0  0  0  0
  1  2  1  0
  2  3  1  0
  2  4  1  0
  4  5  1  0
  5  6  1  0
  6  7  3  0
  4  8  1  0
  8  9  2  0
  8 10  1  0
 10 11  1  0
 11 12  1  0
 12 13  1  0
 13 14  1  0
 14 15  1  0
 15 16  1  0
 16 17  1  0
M  END

