
     RDKit          3D

 12 12  0  0  0  0  0  0  0  0999 V2000
   -0.9899    2.5853    0.1208 C   0  0  0  0  0  0  0  0  0  0  0  0
   -0.3643    1.6430   -0.7683 N   0  0  0  0  0  0  0  0  0  0  0  0
   -0.2694    0.2745   -0.4329 C   0  0  0  0  0  0  0  0  0  0  0  0
    0.8427   -0.4244   -0.2241 C   0  0  0  0  0  0  0  0  0  0  0  0
    2.2189    0.1459   -0.3144 C   0  0  0  0  0  0  0  0  0  0  0  0
    2.9176    0.0399    0.8741 O   0  0  0  0  0  0  0  0  0  0  0  0
    0.4977   -1.8062    0.1043 C   0  0  0  0  0  0  0  0  0  0  0  0
    1.2253   -2.8001   -0.0550 O   0  0  0  0  0  0  0  0  0  0  0  0
   -0.8945   -1.6827    0.6517 C   0  0  0  0  0  0  0  0  0  0  0  0
   -1.4428   -0.6154   -0.2655 C   0  0  0  0  0  0  0  0  0  0  0  0
   -1.6222   -2.9254    0.5729 C   0  0  0  0  0  0  0  0  0  0  0  0
   -2.2028   -3.9214    0.5225 N   0  0  0  0  0  0  0  0  0  0  0  0
  1  2  1  0
  2  3  1  0
  3  4  2  0
  4  5  1  0
  5  6  1  0
  4  7  1  0
  7  8  2  0
  7  9  1  0
  9 10  1  0
  9 11  1  0
 11 12  3  0
 10  3  1  0
M  END

