CC(C1=CC=CC=N1)NC2=NC3=C(C=NN3C)C(=O)N2
     RDKit          3D

 20 22  0  0  0  0  0  0  0  0999 V2000
   -2.3461   -2.7511    0.6526 C   0  0  0  0  0  0  0  0  0  0  0  0
   -1.6024   -1.6416   -0.0938 C   0  0  0  0  0  0  0  0  0  0  0  0
   -2.3884   -0.3756    0.0831 C   0  0  0  0  0  0  0  0  0  0  0  0
   -3.2203    0.0543   -0.9201 C   0  0  0  0  0  0  0  0  0  0  0  0
   -3.9600    1.2042   -0.8079 C   0  0  0  0  0  0  0  0  0  0  0  0
   -3.8790    1.9630    0.3368 C   0  0  0  0  0  0  0  0  0  0  0  0
   -3.0297    1.5132    1.3465 C   0  0  0  0  0  0  0  0  0  0  0  0
   -2.3220    0.3766    1.1916 N   0  0  0  0  0  0  0  0  0  0  0  0
   -0.2662   -1.5001    0.3911 N   0  0  0  0  0  0  0  0  0  0  0  0
    0.7202   -0.6150   -0.1111 C   0  0  0  0  0  0  0  0  0  0  0  0
    1.9661   -0.5657    0.4381 N   0  0  0  0  0  0  0  0  0  0  0  0
    2.9251    0.2555   -0.0153 C   0  0  0  0  0  0  0  0  0  0  0  0
    2.6797    1.1003   -1.0795 C   0  0  0  0  0  0  0  0  0  0  0  0
    3.8331    1.8185   -1.3234 C   0  0  0  0  0  0  0  0  0  0  0  0
    4.7397    1.4069   -0.4231 N   0  0  0  0  0  0  0  0  0  0  0  0
    4.1987    0.4727    0.3596 N   0  0  0  0  0  0  0  0  0  0  0  0
    4.8434   -0.2329    1.4618 C   0  0  0  0  0  0  0  0  0  0  0  0
    1.4238    1.0613   -1.6453 C   0  0  0  0  0  0  0  0  0  0  0  0
    1.1931    1.8255   -2.6121 O   0  0  0  0  0  0  0  0  0  0  0  0
    0.4902    0.2101   -1.1461 N   0  0  0  0  0  0  0  0  0  0  0  0
  1  2  1  0
  2  3  1  0
  3  4  2  0
  4  5  1  0
  5  6  2  0
  6  7  1  0
  7  8  2  0
  2  9  1  0
  9 10  1  0
 10 11  2  0
 11 12  1  0
 12 13  2  0
 13 14  1  0
 14 15  2  0
 15 16  1  0
 16 17  1  0
 13 18  1  0
 18 19  2  0
 18 20  1  0
  8  3  1  0
 20 10  1  0
 16 12  1  0
M  END

