
     RDKit          3D

 22 25  0  0  0  0  0  0  0  0999 V2000
    8.2689    0.2902   -0.5482 C   0  0  0  0  0  0  0  0  0  0  0  0
    7.1548   -0.4927    0.1001 C   0  0  0  0  0  0  0  0  0  0  0  0
    7.2958   -1.5512    0.9172 N   0  0  0  0  0  0  0  0  0  0  0  0
    6.0708   -1.9704    1.2869 C   0  0  0  0  0  0  0  0  0  0  0  0
    5.1569   -1.1371    0.6726 C   0  0  0  0  0  0  0  0  0  0  0  0
    5.8691   -0.2819   -0.0173 O   0  0  0  0  0  0  0  0  0  0  0  0
    3.6960   -1.2153    0.7860 C   0  0  0  0  0  0  0  0  0  0  0  0
    2.9834   -2.1029    1.5013 N   0  0  0  0  0  0  0  0  0  0  0  0
    1.6694   -1.8545    1.3557 C   0  0  0  0  0  0  0  0  0  0  0  0
    1.5970   -0.7596    0.5076 C   0  0  0  0  0  0  0  0  0  0  0  0
    2.8343   -0.4378    0.2130 O   0  0  0  0  0  0  0  0  0  0  0  0
    0.3610   -0.1261    0.0600 C   0  0  0  0  0  0  0  0  0  0  0  0
    0.3147    0.9362   -0.7638 N   0  0  0  0  0  0  0  0  0  0  0  0
   -1.0141    1.2088   -0.9276 C   0  0  0  0  0  0  0  0  0  0  0  0
   -1.7336    0.2962   -0.1924 C   0  0  0  0  0  0  0  0  0  0  0  0
   -0.8561   -0.4804    0.3794 O   0  0  0  0  0  0  0  0  0  0  0  0
   -3.1971    0.2572   -0.1092 C   0  0  0  0  0  0  0  0  0  0  0  0
   -3.8535    0.1080   -1.4642 C   0  0  0  0  0  0  0  0  0  0  0  0
   -5.3191   -0.1976   -1.2103 C   0  0  0  0  0  0  0  0  0  0  0  0
   -5.9957    0.8420   -0.3801 C   0  0  0  0  0  0  0  0  0  0  0  0
   -5.1979    1.3344    0.7774 C   0  0  0  0  0  0  0  0  0  0  0  0
   -3.7492    1.5579    0.4866 C   0  0  0  0  0  0  0  0  0  0  0  0
  1  2  1  0
  2  3  2  0
  3  4  1  0
  4  5  2  0
  5  6  1  0
  5  7  1  0
  7  8  2  0
  8  9  1  0
  9 10  2  0
 10 11  1  0
 10 12  1  0
 12 13  2  0
 13 14  1  0
 14 15  2  0
 15 16  1  0
 15 17  1  0
 17 18  1  0
 18 19  1  0
 19 20  1  0
 20 21  1  0
 21 22  1  0
  6  2  1  0
 11  7  1  0
 16 12  1  0
 22 17  1  0
M  END

