
     RDKit          3D

 20 22  0  0  0  0  0  0  0  0999 V2000
    6.9516    0.3905   -0.2589 C   0  0  0  0  0  0  0  0  0  0  0  0
    5.6801    0.9094    0.1179 O   0  0  0  0  0  0  0  0  0  0  0  0
    4.5715    0.0847    0.1854 C   0  0  0  0  0  0  0  0  0  0  0  0
    4.7433   -1.2294   -0.1196 N   0  0  0  0  0  0  0  0  0  0  0  0
    3.7010   -2.0798   -0.0714 C   0  0  0  0  0  0  0  0  0  0  0  0
    2.4425   -1.6010    0.2942 C   0  0  0  0  0  0  0  0  0  0  0  0
    2.2858   -0.2683    0.5995 C   0  0  0  0  0  0  0  0  0  0  0  0
    3.3623    0.6041    0.5488 C   0  0  0  0  0  0  0  0  0  0  0  0
    0.9416    0.2803    0.9959 C   0  0  0  0  0  0  0  0  0  0  0  0
    0.3831    0.9229   -0.1176 N   0  0  0  0  0  0  0  0  0  0  0  0
   -0.8622    1.5454   -0.0797 C   0  0  0  0  0  0  0  0  0  0  0  0
   -2.1171    0.7978   -0.0091 C   0  0  0  0  0  0  0  0  0  0  0  0
   -2.3105   -0.1108    1.1799 C   0  0  0  0  0  0  0  0  0  0  0  0
   -3.7604   -0.4427    1.1822 N   0  0  0  0  0  0  0  0  0  0  0  0
   -4.5195   -0.3587   -0.0099 C   0  0  0  0  0  0  0  0  0  0  0  0
   -5.8944   -0.4692   -0.2638 C   0  0  0  0  0  0  0  0  0  0  0  0
   -6.1087   -0.3047   -1.6126 C   0  0  0  0  0  0  0  0  0  0  0  0
   -4.9061   -0.1053   -2.1400 N   0  0  0  0  0  0  0  0  0  0  0  0
   -3.9530   -0.1350   -1.1954 N   0  0  0  0  0  0  0  0  0  0  0  0
   -2.5133    0.0292   -1.2612 C   0  0  0  0  0  0  0  0  0  0  0  0
  1  2  1  0
  2  3  1  0
  3  4  2  0
  4  5  1  0
  5  6  2  0
  6  7  1  0
  7  8  2  0
  7  9  1  0
  9 10  1  0
 10 11  1  0
 11 12  1  0
 12 13  1  0
 13 14  1  0
 14 15  1  0
 15 16  2  0
 16 17  1  0
 17 18  2  0
 18 19  1  0
 19 20  1  0
  8  3  1  0
 20 12  1  0
 19 15  1  0
M  END

