COCCNC(=O)C1=NOC(=N1)C2=CC=CNC2=O
     RDKit          3D

 19 20  0  0  0  0  0  0  0  0999 V2000
   -5.2605   -1.5754   -0.0252 C   0  0  0  0  0  0  0  0  0  0  0  0
   -5.0602   -0.6034   -0.9941 O   0  0  0  0  0  0  0  0  0  0  0  0
   -4.9259    0.6610   -0.4913 C   0  0  0  0  0  0  0  0  0  0  0  0
   -3.7657    0.8204    0.4557 C   0  0  0  0  0  0  0  0  0  0  0  0
   -2.5017    0.5244   -0.1362 N   0  0  0  0  0  0  0  0  0  0  0  0
   -1.3229    0.6279    0.6241 C   0  0  0  0  0  0  0  0  0  0  0  0
   -1.3670    0.9772    1.8165 O   0  0  0  0  0  0  0  0  0  0  0  0
   -0.0361    0.3253    0.0172 C   0  0  0  0  0  0  0  0  0  0  0  0
    0.2326   -0.0648   -1.2397 N   0  0  0  0  0  0  0  0  0  0  0  0
    1.5020   -0.2270   -1.3672 O   0  0  0  0  0  0  0  0  0  0  0  0
    2.0930    0.0392   -0.2453 C   0  0  0  0  0  0  0  0  0  0  0  0
    1.1640    0.3842    0.6304 N   0  0  0  0  0  0  0  0  0  0  0  0
    3.5500   -0.0291    0.0158 C   0  0  0  0  0  0  0  0  0  0  0  0
    4.4222   -0.4012   -0.9731 C   0  0  0  0  0  0  0  0  0  0  0  0
    5.7703   -0.4551   -0.6996 C   0  0  0  0  0  0  0  0  0  0  0  0
    6.2217   -0.1351    0.5613 C   0  0  0  0  0  0  0  0  0  0  0  0
    5.3364    0.2240    1.5006 N   0  0  0  0  0  0  0  0  0  0  0  0
    4.0165    0.2880    1.2717 C   0  0  0  0  0  0  0  0  0  0  0  0
    3.1846    0.6251    2.1533 O   0  0  0  0  0  0  0  0  0  0  0  0
  1  2  1  0
  2  3  1  0
  3  4  1  0
  4  5  1  0
  5  6  1  0
  6  7  2  0
  6  8  1  0
  8  9  2  0
  9 10  1  0
 10 11  1  0
 11 12  2  0
 11 13  1  0
 13 14  2  0
 14 15  1  0
 15 16  2  0
 16 17  1  0
 17 18  1  0
 18 19  2  0
 12  8  1  0
 18 13  1  0
M  END

