
     RDKit          3D

 10 10  0  0  0  0  0  0  0  0999 V2000
    1.1357    0.7366   -0.7237 C   0  0  0  0  0  0  0  0  0  0  0  0
    0.3507    0.2193    0.2844 C   0  0  0  0  0  0  0  0  0  0  0  0
    0.9927   -0.5079    1.2654 C   0  0  0  0  0  0  0  0  0  0  0  0
    2.3242   -0.7010    1.2359 N   0  0  0  0  0  0  0  0  0  0  0  0
    3.1237   -0.2122    0.2689 C   0  0  0  0  0  0  0  0  0  0  0  0
    2.5093    0.5201   -0.7270 C   0  0  0  0  0  0  0  0  0  0  0  0
    3.6921    1.3229   -2.2828 I   0  0  0  0  0  0  0  0  0  0  0  0
   -1.1154    0.4011    0.3653 C   0  0  0  0  0  0  0  0  0  0  0  0
   -1.8673   -0.6968   -0.3477 C   0  0  0  0  0  0  0  0  0  0  0  0
   -3.2841   -0.4452   -0.2214 N   0  0  0  0  0  0  0  0  0  0  0  0
  1  2  2  0
  2  3  1  0
  3  4  2  0
  4  5  1  0
  5  6  2  0
  6  7  1  0
  2  8  1  0
  8  9  1  0
  9 10  1  0
  6  1  1  0
M  END

