
     RDKit          3D

 21 23  0  0  0  0  0  0  0  0999 V2000
    5.3247    0.4106    0.1152 C   0  0  0  0  0  0  0  0  0  0  0  0
    4.2104    1.2298    0.1151 C   0  0  0  0  0  0  0  0  0  0  0  0
    2.9186    0.6935    0.0256 C   0  0  0  0  0  0  0  0  0  0  0  0
    2.7454   -0.6464   -0.0622 C   0  0  0  0  0  0  0  0  0  0  0  0
    3.8842   -1.4423   -0.0590 C   0  0  0  0  0  0  0  0  0  0  0  0
    5.1594   -0.9543    0.0265 C   0  0  0  0  0  0  0  0  0  0  0  0
    1.4867   -1.2537   -0.1441 N   0  0  0  0  0  0  0  0  0  0  0  0
    0.2352   -0.6208   -0.0795 C   0  0  0  0  0  0  0  0  0  0  0  0
   -0.8818   -1.4077   -0.1780 N   0  0  0  0  0  0  0  0  0  0  0  0
   -2.1284   -0.9505   -0.1332 C   0  0  0  0  0  0  0  0  0  0  0  0
   -2.3191    0.4376    0.0256 C   0  0  0  0  0  0  0  0  0  0  0  0
   -3.5913    0.9567    0.0928 C   0  0  0  0  0  0  0  0  0  0  0  0
   -4.7080    0.0830    0.0052 C   0  0  0  0  0  0  0  0  0  0  0  0
   -4.4733   -1.2382   -0.1449 C   0  0  0  0  0  0  0  0  0  0  0  0
   -3.2198   -1.7829   -0.2174 C   0  0  0  0  0  0  0  0  0  0  0  0
   -3.8470    2.3299    0.2484 N   0  0  0  0  0  4  0  0  0  0  0  0
   -3.3040    3.3196   -0.2165 O   0  0  0  0  0  0  0  0  0  0  0  0
   -4.9832    2.6245    1.0331 O   0  0  0  0  0  1  0  0  0  0  0  0
   -1.1817    1.2188    0.1251 C   0  0  0  0  0  0  0  0  0  0  0  0
   -1.2814    2.4574    0.2723 O   0  0  0  0  0  0  0  0  0  0  0  0
    0.0085    0.6530    0.0671 O   0  0  0  0  0  0  0  0  0  0  0  0
  1  2  2  0
  2  3  1  0
  3  4  2  0
  4  5  1  0
  5  6  2  0
  4  7  1  0
  7  8  1  0
  8  9  2  0
  9 10  1  0
 10 11  2  0
 11 12  1  0
 12 13  2  0
 13 14  1  0
 14 15  2  0
 12 16  1  0
 16 17  2  0
 16 18  1  0
 11 19  1  0
 19 20  2  0
 19 21  1  0
  6  1  1  0
 21  8  1  0
 15 10  1  0
M  CHG  2  16   1  18  -1
M  END

