
     RDKit          3D

 17 17  0  0  0  0  0  0  0  0999 V2000
    4.7975    0.8605    1.2631 C   0  0  0  0  0  0  0  0  0  0  0  0
    3.4033    0.5256    0.8816 C   0  0  0  0  0  0  0  0  0  0  0  0
    3.1408   -0.6705    0.2330 C   0  0  0  0  0  0  0  0  0  0  0  0
    1.8506   -0.9832   -0.1214 C   0  0  0  0  0  0  0  0  0  0  0  0
    0.7691   -0.1348    0.1466 C   0  0  0  0  0  0  0  0  0  0  0  0
    1.0822    1.0319    0.7878 C   0  0  0  0  0  0  0  0  0  0  0  0
    2.3792    1.3801    1.1614 C   0  0  0  0  0  0  0  0  0  0  0  0
   -0.5447   -0.4789   -0.2275 N   0  0  0  0  0  0  0  0  0  0  0  0
   -1.7307    0.2471   -0.0377 C   0  0  0  0  0  0  0  0  0  0  0  0
   -1.7219    1.3446    0.5221 O   0  0  0  0  0  0  0  0  0  0  0  0
   -2.9768   -0.3299   -0.5200 C   0  0  0  0  0  0  0  0  0  0  0  0
   -4.1300    0.2865   -0.3810 C   0  0  0  0  0  0  0  0  0  0  0  0
   -4.1897    1.5924    0.2744 C   0  0  0  0  0  0  0  0  0  0  0  0
   -5.3126   -0.3183   -0.8678 O   0  0  0  0  0  0  0  0  0  0  0  0
   -3.0017   -1.6156   -1.1778 N   0  0  0  0  0  0  0  0  0  0  0  0
   -3.2230   -2.6699   -0.5579 O   0  0  0  0  0  0  0  0  0  0  0  0
    1.5781   -2.2619   -0.8134 C   0  0  0  0  0  0  0  0  0  0  0  0
  1  2  1  0
  2  3  2  0
  3  4  1  0
  4  5  2  0
  5  6  1  0
  6  7  2  0
  5  8  1  0
  8  9  1  0
  9 10  2  0
  9 11  1  0
 11 12  2  0
 12 13  1  0
 12 14  1  0
 11 15  1  0
 15 16  2  0
  4 17  1  0
  7  2  1  0
M  END

