
     RDKit          3D

 10 10  0  0  0  0  0  0  0  0999 V2000
    0.9476    0.2713    0.7656 C   0  0  0  0  0  0  0  0  0  0  0  0
    0.1087   -0.5263    0.0012 C   0  0  0  0  0  0  0  0  0  0  0  0
    0.5426   -0.8895   -1.2641 C   0  0  0  0  0  0  0  0  0  0  0  0
    1.7306   -0.4981   -1.7620 N   0  0  0  0  0  0  0  0  0  0  0  0
    2.5536    0.2763   -1.0295 C   0  0  0  0  0  0  0  0  0  0  0  0
    2.1677    0.6699    0.2469 C   0  0  0  0  0  0  0  0  0  0  0  0
    3.4041    1.8816    1.4507 I   0  0  0  0  0  0  0  0  0  0  0  0
   -1.1993   -0.9584    0.5470 C   0  0  0  0  0  0  0  0  0  0  0  0
   -2.3070    0.0402    0.2112 C   0  0  0  0  0  0  0  0  0  0  0  0
   -2.0222    1.2961    0.7427 O   0  0  0  0  0  0  0  0  0  0  0  0
  1  2  2  0
  2  3  1  0
  3  4  2  0
  4  5  1  0
  5  6  2  0
  6  7  1  0
  2  8  1  0
  8  9  1  0
  9 10  1  0
  6  1  1  0
M  END

