
     RDKit          3D

 13 14  0  0  0  0  0  0  0  0999 V2000
    3.5942    0.7782    0.4739 C   0  0  0  0  0  0  0  0  0  0  0  0
    2.6702   -0.0172    0.9808 C   0  0  0  0  0  0  0  0  0  0  0  0
    1.3359   -0.0718    0.3996 C   0  0  0  0  0  0  0  0  0  0  0  0
    0.3278   -0.8342    0.8263 C   0  0  0  0  0  0  0  0  0  0  0  0
   -0.8150   -0.5919   -0.0177 C   0  0  0  0  0  0  0  0  0  0  0  0
   -1.8693    0.2976    0.5854 C   0  0  0  0  0  0  0  0  0  0  0  0
   -1.3481    1.6347    0.9213 C   0  0  0  0  0  0  0  0  0  0  0  0
   -0.7068    1.7818    1.9405 O   0  0  0  0  0  0  0  0  0  0  0  0
   -1.5310   -1.7888   -0.5775 C   0  0  0  0  0  0  0  0  0  0  0  0
   -2.1282   -1.0827   -1.7307 N   0  0  0  0  0  0  0  0  0  0  0  0
   -1.0988   -0.2751   -2.2152 N   0  0  0  0  0  0  0  0  0  0  0  0
   -0.2942    0.0465   -1.2713 C   0  0  0  0  0  0  0  0  0  0  0  0
    0.9319    0.7396   -0.7777 C   0  0  0  0  0  0  0  0  0  0  0  0
  1  2  2  0
  2  3  1  0
  3  4  2  0
  4  5  1  0
  5  6  1  0
  6  7  1  0
  7  8  2  0
  5  9  1  0
  9 10  1  0
 10 11  1  0
 11 12  2  0
 12 13  1  0
 13  3  1  0
 12  5  1  0
M  END

