
     RDKit          3D

 20 21  0  0  0  0  0  0  0  0999 V2000
   -1.9366   -2.8067   -0.5650 C   0  0  0  0  0  0  0  0  0  0  0  0
   -3.1105   -2.7871    0.0942 N   0  0  0  0  0  0  0  0  0  0  0  0
   -3.5292   -1.5205    0.2505 C   0  0  0  0  0  0  0  0  0  0  0  0
   -2.5865   -0.6981   -0.3314 C   0  0  0  0  0  0  0  0  0  0  0  0
   -1.6372   -1.5198   -0.8139 N   0  0  0  0  0  0  0  0  0  0  0  0
   -0.4567   -1.0664   -1.5066 C   0  0  0  0  0  0  0  0  0  0  0  0
    0.6740   -0.8251   -0.4964 C   0  0  0  0  0  0  0  0  0  0  0  0
    1.8199   -0.3832   -1.1778 N   0  0  0  0  0  0  0  0  0  0  0  0
    2.9869   -0.0995   -0.4703 C   0  0  0  0  0  0  0  0  0  0  0  0
    2.9779    1.0803    0.4387 C   0  0  0  0  0  0  0  0  0  0  0  0
    4.6364    1.1753    1.2009 P   0  0  0  0  0  5  0  0  0  0  0  0
    4.4992    1.6873    2.6219 O   0  0  0  0  0  0  0  0  0  0  0  0
    5.4227   -0.3180    1.1393 O   0  0  0  0  0  0  0  0  0  0  0  0
    5.5859    2.2709    0.3074 O   0  0  0  0  0  0  0  0  0  0  0  0
   -2.7511    0.6525   -0.3237 N   0  0  0  0  0  0  0  0  0  0  0  0
   -3.8254    1.2351    0.2438 C   0  0  0  0  0  0  0  0  0  0  0  0
   -4.7467    0.4359    0.8123 N   0  0  0  0  0  0  0  0  0  0  0  0
   -4.6216   -0.9164    0.8270 C   0  0  0  0  0  0  0  0  0  0  0  0
   -5.4825   -1.6567    1.3580 O   0  0  0  0  0  0  0  0  0  0  0  0
   -4.0005    2.6516    0.2535 N   0  0  0  0  0  0  0  0  0  0  0  0
  1  2  2  0
  2  3  1  0
  3  4  2  0
  4  5  1  0
  5  6  1  0
  6  7  1  0
  7  8  1  0
  8  9  1  0
  9 10  1  0
 10 11  1  0
 11 12  2  0
 11 13  1  0
 11 14  1  0
  4 15  1  0
 15 16  2  0
 16 17  1  0
 17 18  1  0
 18 19  2  0
 16 20  1  0
  5  1  1  0
 18  3  1  0
M  END

