
     RDKit          3D

 13 13  0  0  0  0  0  0  0  0999 V2000
   -2.6272    2.1816    0.1118 C   0  0  0  0  0  0  0  0  0  0  0  0
   -2.6849    0.7928    0.4971 N   0  0  0  0  0  0  0  0  0  0  0  0
   -1.3905    0.1959    0.6592 C   0  0  0  0  0  0  0  0  0  0  0  0
   -1.6355   -1.2647    1.0622 C   0  0  0  0  0  0  0  0  0  0  0  0
   -0.6110    0.1515   -0.6365 C   0  0  0  0  0  0  0  0  0  0  0  0
   -1.3219   -0.6079   -1.5948 O   0  0  0  0  0  0  0  0  0  0  0  0
    0.7333   -0.5217   -0.4570 C   0  0  0  0  0  0  0  0  0  0  0  0
    1.5037    0.1452    0.6401 C   0  0  0  0  0  0  0  0  0  0  0  0
    2.8584   -0.1708    0.6841 O   0  0  0  0  0  0  0  0  0  0  0  0
    3.4884   -0.5799   -0.4825 C   0  0  0  0  0  0  0  0  0  0  0  0
    4.7264   -0.9048   -0.5554 N   0  0  0  0  0  0  0  0  0  0  0  0
    2.6782   -0.6296   -1.6504 N   0  0  0  0  0  0  0  0  0  0  0  0
    1.3592   -0.5168   -1.6811 O   0  0  0  0  0  0  0  0  0  0  0  0
  1  2  1  0
  2  3  1  0
  3  4  1  0
  3  5  1  0
  5  6  1  0
  5  7  1  0
  7  8  1  0
  8  9  1  0
  9 10  1  0
 10 11  2  0
 10 12  1  0
 12 13  1  0
 13  7  1  0
M  END

