
     RDKit          3D

 11 10  0  0  0  0  0  0  0  0999 V2000
   -2.8658    0.5845    0.2108 C   0  0  0  0  0  0  0  0  0  0  0  0
   -1.3521    0.8245    0.1263 C   0  0  0  0  0  0  0  0  0  0  0  0
   -1.1353    1.3414   -1.1581 O   0  0  0  0  0  0  0  0  0  0  0  0
   -0.7017   -0.5177    0.2167 C   0  0  0  0  0  0  0  0  0  0  0  0
   -1.0327   -1.2236    1.5082 C   0  0  0  0  0  0  0  0  0  0  0  0
   -0.5747   -0.4200    2.5475 O   0  0  0  0  0  0  0  0  0  0  0  0
    0.7678   -0.4885    0.0577 C   0  0  0  0  0  0  0  0  0  0  0  0
    1.4523   -0.8969    0.9760 O   0  0  0  0  0  0  0  0  0  0  0  0
    1.4505    0.0125   -1.1623 C   0  0  0  0  0  0  0  0  0  0  0  0
    2.9412   -0.1162   -0.9565 C   0  0  0  0  0  0  0  0  0  0  0  0
    3.6579    0.3371   -2.0657 O   0  0  0  0  0  0  0  0  0  0  0  0
  1  2  1  0
  2  3  1  0
  2  4  1  0
  4  5  1  0
  5  6  1  0
  4  7  1  0
  7  8  2  0
  7  9  1  0
  9 10  1  0
 10 11  1  0
M  END

