
     RDKit          3D

 23 24  0  0  0  0  0  0  0  0999 V2000
    6.5664    0.6198    0.0830 C   0  0  0  0  0  0  0  0  0  0  0  0
    6.3092   -0.1208   -1.2160 C   0  0  0  0  0  0  0  0  0  0  0  0
    5.4679   -1.3209   -0.9429 C   0  0  0  0  0  0  0  0  0  0  0  0
    4.1456   -0.9950   -0.3540 C   0  0  0  0  0  0  0  0  0  0  0  0
    3.0026   -0.8312   -1.0826 C   0  0  0  0  0  0  0  0  0  0  0  0
    1.8096   -0.5078   -0.4364 C   0  0  0  0  0  0  0  0  0  0  0  0
    1.7505   -0.3465    0.9154 C   0  0  0  0  0  0  0  0  0  0  0  0
    2.9416   -0.5213    1.6386 C   0  0  0  0  0  0  0  0  0  0  0  0
    4.1337   -0.8414    1.0372 C   0  0  0  0  0  0  0  0  0  0  0  0
    0.5521   -0.0106    1.6747 C   0  0  0  0  0  0  0  0  0  0  0  0
   -0.6687    0.0450    1.0934 O   0  0  0  0  0  0  0  0  0  0  0  0
   -1.2428    0.7945    0.1217 C   0  0  0  0  0  0  0  0  0  0  0  0
   -0.5538    1.6706   -0.4323 O   0  0  0  0  0  0  0  0  0  0  0  0
   -2.6500    0.5874   -0.2724 N   0  0  0  0  0  0  0  0  0  0  0  0
   -3.2631    1.3131   -1.2243 C   0  0  0  0  0  0  0  0  0  0  0  0
   -3.8005    1.9489   -2.0583 N   0  0  0  0  0  0  0  0  0  0  0  0
   -4.8777    0.7498   -0.7736 C   0  0  0  0  0  0  0  0  0  0  0  0
   -5.0298    0.4378    0.4813 C   0  0  0  0  0  0  0  0  0  0  0  0
   -6.2985   -0.1287    0.8738 C   0  0  0  0  0  0  0  0  0  0  0  0
   -7.2373   -0.2911   -0.1068 C   0  0  0  0  0  0  0  0  0  0  0  0
   -7.0208    0.0517   -1.3942 C   0  0  0  0  0  0  0  0  0  0  0  0
   -5.7388    0.6150   -1.7426 C   0  0  0  0  0  0  0  0  0  0  0  0
   -6.4857   -0.4644    2.1878 O   0  0  0  0  0  0  0  0  0  0  0  0
  1  2  1  0
  2  3  1  0
  3  4  1  0
  4  5  2  0
  5  6  1  0
  6  7  2  0
  7  8  1  0
  8  9  2  0
  7 10  1  0
 10 11  1  0
 11 12  1  0
 12 13  2  0
 12 14  1  0
 14 15  1  0
 15 16  2  0
 15 17  1  0
 17 18  2  0
 18 19  1  0
 19 20  2  0
 20 21  1  0
 21 22  2  0
 19 23  1  0
  9  4  1  0
 22 17  1  0
M  END

