
     RDKit          3D

 13 12  0  0  0  0  0  0  0  0999 V2000
   -0.3322   -0.6505    2.0699 C   0  0  0  0  0  0  0  0  0  0  0  0
   -1.0926    0.0669    1.0211 C   0  0  0  0  0  0  0  0  0  0  0  0
   -0.8969   -0.3776   -0.3946 C   0  0  0  0  0  0  0  0  0  0  0  0
   -1.8138    0.5074   -1.2803 C   0  0  0  0  0  0  0  0  0  0  0  0
   -1.4281    1.9604   -1.1201 C   0  0  0  0  0  0  0  0  0  0  0  0
    0.4140   -0.1443   -0.8957 N   0  0  0  0  0  0  0  0  0  0  0  0
    1.4628   -0.8231   -0.3676 N   0  0  0  0  0  0  0  0  0  0  0  0
    2.6361   -0.1453    0.0959 C   0  0  0  0  0  0  0  0  0  0  0  0
    3.7307   -0.4900   -0.5055 N   0  0  0  0  0  0  0  0  0  0  0  0
    2.6542    0.8636    1.1601 C   0  0  0  0  0  0  0  0  0  0  0  0
    1.8257    1.9356    0.8020 O   0  0  0  0  0  0  0  0  0  0  0  0
   -1.3594   -1.7767   -0.6047 C   0  0  0  0  0  0  0  0  0  0  0  0
   -2.2787   -2.1347   -1.4840 C   0  0  0  0  0  0  0  0  0  0  0  0
  1  2  1  0
  2  3  1  0
  3  4  1  0
  4  5  1  0
  3  6  1  0
  6  7  1  0
  7  8  1  0
  8  9  2  0
  8 10  1  0
 10 11  1  0
  3 12  1  0
 12 13  2  0
M  END

