
     RDKit          3D

 25 26  0  0  0  0  0  0  0  0999 V2000
   -6.0329   -1.6013   -0.1762 C   0  0  0  0  0  0  0  0  0  0  0  0
   -4.8522   -0.8291    0.3328 C   0  0  0  0  0  0  0  0  0  0  0  0
   -3.9107   -1.7901    1.0100 C   0  0  0  0  0  0  0  0  0  0  0  0
   -5.3457    0.1433    1.3846 C   0  0  0  0  0  0  0  0  0  0  0  0
   -4.2302   -0.0750   -0.6838 O   0  0  0  0  0  0  0  0  0  0  0  0
   -3.1069    0.7230   -0.4343 C   0  0  0  0  0  0  0  0  0  0  0  0
   -2.7232    0.6989    0.7482 O   0  0  0  0  0  0  0  0  0  0  0  0
   -2.4743    1.4781   -1.4246 N   0  0  0  0  0  0  0  0  0  0  0  0
   -1.3534    2.3251   -1.4212 C   0  0  0  0  0  0  0  0  0  0  0  0
   -0.0536    1.6794   -1.1085 C   0  0  0  0  0  0  0  0  0  0  0  0
    0.1462    1.0428    0.1988 C   0  0  0  0  0  0  0  0  0  0  0  0
    1.5972    0.9662    0.5747 C   0  0  0  0  0  0  0  0  0  0  0  0
    2.5604    0.7506   -0.5360 C   0  0  0  0  0  0  0  0  0  0  0  0
    2.2847    1.6334   -1.7306 C   0  0  0  0  0  0  0  0  0  0  0  0
    1.1293    2.5829   -1.4228 C   0  0  0  0  0  0  0  0  0  0  0  0
    2.4803   -0.6910   -0.9862 C   0  0  0  0  0  0  0  0  0  0  0  0
    2.8018   -1.6074    0.0814 N   0  0  0  0  0  0  0  0  0  0  0  0
    4.0689   -1.6076    0.7083 C   0  0  0  0  0  0  0  0  0  0  0  0
    5.0717   -0.7782    0.3791 N   0  0  0  0  0  0  0  0  0  0  0  0
    6.2596   -0.7790    0.9675 C   0  0  0  0  0  0  0  0  0  0  0  0
    6.5271   -1.6622    1.9786 C   0  0  0  0  0  0  0  0  0  0  0  0
    5.5144   -2.5314    2.3425 C   0  0  0  0  0  0  0  0  0  0  0  0
    4.3469   -2.4823    1.7161 N   0  0  0  0  0  0  0  0  0  0  0  0
    5.8566   -3.6658    3.6403 Cl  0  0  0  0  0  0  0  0  0  0  0  0
    7.7396   -1.6878    2.6038 F   0  0  0  0  0  0  0  0  0  0  0  0
  1  2  1  0
  2  3  1  0
  2  4  1  0
  2  5  1  0
  5  6  1  0
  6  7  2  0
  6  8  1  0
  8  9  1  0
  9 10  1  0
 10 11  1  0
 11 12  1  0
 12 13  1  0
 13 14  1  0
 14 15  1  0
 13 16  1  0
 16 17  1  0
 17 18  1  0
 18 19  2  0
 19 20  1  0
 20 21  2  0
 21 22  1  0
 22 23  2  0
 22 24  1  0
 21 25  1  0
 15 10  1  0
 23 18  1  0
M  END

