
     RDKit          3D

 20 21  0  0  0  0  0  0  0  0999 V2000
   -4.7738   -0.9196    0.6012 C   0  0  0  0  0  0  0  0  0  0  0  0
   -3.6364   -1.5694   -0.1111 C   0  0  0  0  0  0  0  0  0  0  0  0
   -2.3368   -0.8069   -0.0303 C   0  0  0  0  0  0  0  0  0  0  0  0
   -2.5197    0.6126    0.3816 C   0  0  0  0  0  0  0  0  0  0  0  0
   -3.2580    0.7314    1.7134 C   0  0  0  0  0  0  0  0  0  0  0  0
   -4.3390   -0.2803    1.8813 C   0  0  0  0  0  0  0  0  0  0  0  0
   -1.2546    1.2913    0.4840 N   0  0  0  0  0  0  0  0  0  0  0  0
   -0.3616    1.5554   -0.5784 C   0  0  0  0  0  0  0  0  0  0  0  0
   -0.7462    1.0923   -2.0852 S   0  0  0  0  0  0  0  0  0  0  0  0
    0.8914    2.2365   -0.3940 N   0  0  0  0  0  0  0  0  0  0  0  0
    1.6970    2.4584   -1.4393 N   0  0  0  0  0  0  0  0  0  0  0  0
    2.7305    1.8454   -1.7830 C   0  0  0  0  0  0  0  0  0  0  0  0
    3.2768    0.7212   -1.0757 C   0  0  0  0  0  0  0  0  0  0  0  0
    4.4463    0.1743   -1.6278 C   0  0  0  0  0  0  0  0  0  0  0  0
    5.0859   -0.9171   -1.0492 C   0  0  0  0  0  0  0  0  0  0  0  0
    4.6123   -1.5130    0.0825 C   0  0  0  0  0  0  0  0  0  0  0  0
    3.4726   -0.9924    0.6342 C   0  0  0  0  0  0  0  0  0  0  0  0
    2.8271    0.1097    0.0498 C   0  0  0  0  0  0  0  0  0  0  0  0
    5.2506   -2.6134    0.6722 O   0  0  0  0  0  0  0  0  0  0  0  0
    5.0572    0.6512   -2.7634 O   0  0  0  0  0  0  0  0  0  0  0  0
  1  2  1  0
  2  3  1  0
  3  4  1  0
  4  5  1  0
  5  6  1  0
  4  7  1  0
  7  8  1  0
  8  9  2  0
  8 10  1  0
 10 11  1  0
 11 12  2  0
 12 13  1  0
 13 14  2  0
 14 15  1  0
 15 16  2  0
 16 17  1  0
 17 18  2  0
 16 19  1  0
 14 20  1  0
  6  1  1  0
 18 13  1  0
M  END

