
     RDKit          3D

 23 24  0  0  0  0  0  0  0  0999 V2000
    1.4032   -3.2859    1.6214 C   0  0  0  0  0  0  0  0  0  0  0  0
    2.5070   -2.5815    0.8790 C   0  0  0  0  0  0  0  0  0  0  0  0
    2.1407   -1.1769    0.5341 C   0  0  0  0  0  0  0  0  0  0  0  0
    1.2912   -0.8577   -0.5149 C   0  0  0  0  0  0  0  0  0  0  0  0
    0.9576    0.4659   -0.8150 C   0  0  0  0  0  0  0  0  0  0  0  0
    1.5086    1.4832   -0.0196 C   0  0  0  0  0  0  0  0  0  0  0  0
    2.3500    1.1875    1.0214 C   0  0  0  0  0  0  0  0  0  0  0  0
    2.6472   -0.1254    1.2753 C   0  0  0  0  0  0  0  0  0  0  0  0
    2.8797    2.3371    1.8055 C   0  0  0  0  0  0  0  0  0  0  0  0
    0.1147    0.8250   -1.8921 N   0  0  0  0  0  0  0  0  0  0  0  0
    0.8256    0.8871   -3.2013 C   0  0  0  0  0  0  0  0  0  0  0  0
   -1.2543    1.1198   -1.8695 C   0  0  0  0  0  0  0  0  0  0  0  0
   -1.7371    1.4739   -3.0154 O   0  0  0  0  0  0  0  0  0  0  0  0
   -2.1896    1.0894   -0.7850 C   0  0  0  0  0  0  0  0  0  0  0  0
   -3.4913    1.5230   -1.0370 C   0  0  0  0  0  0  0  0  0  0  0  0
   -4.4022    1.4877   -0.0097 C   0  0  0  0  0  0  0  0  0  0  0  0
   -4.0886    1.0418    1.2632 C   0  0  0  0  0  0  0  0  0  0  0  0
   -2.8114    0.6088    1.5353 C   0  0  0  0  0  0  0  0  0  0  0  0
   -1.8915    0.6500    0.4786 C   0  0  0  0  0  0  0  0  0  0  0  0
   -2.3966    0.1043    2.8872 C   0  0  0  0  0  0  0  0  0  0  0  0
   -3.8904    1.9871   -2.2907 O   0  0  0  0  0  0  0  0  0  0  0  0
    0.7841   -1.8838   -1.2532 O   0  0  0  0  0  0  0  0  0  0  0  0
    1.3304   -2.4733   -2.3902 C   0  0  0  0  0  0  0  0  0  0  0  0
  1  2  1  0
  2  3  1  0
  3  4  2  0
  4  5  1  0
  5  6  2  0
  6  7  1  0
  7  8  2  0
  7  9  1  0
  5 10  1  0
 10 11  1  0
 10 12  1  0
 12 13  2  0
 12 14  1  0
 14 15  2  0
 15 16  1  0
 16 17  2  0
 17 18  1  0
 18 19  2  0
 18 20  1  0
 15 21  1  0
  4 22  1  0
 22 23  1  0
  8  3  1  0
 19 14  1  0
M  END

