
     RDKit          3D

 13 12  0  0  0  0  0  0  0  0999 V2000
    2.5121   -0.9911   -0.6144 C   0  0  0  0  0  0  0  0  0  0  0  0
    1.4354   -0.0226   -0.1352 C   0  0  0  0  0  0  0  0  0  0  0  0
    1.9005    1.2760    0.0659 N   0  0  0  0  0  0  0  0  0  0  0  0
    3.2460    1.6625   -0.0881 C   0  0  0  0  0  0  0  0  0  0  0  0
    4.1945    0.9205   -0.4165 O   0  0  0  0  0  0  0  0  0  0  0  0
    0.2093   -0.4707   -0.0073 C   0  0  0  0  0  0  0  0  0  0  0  0
    0.0372   -1.9594   -0.3799 C   0  0  0  0  0  0  0  0  0  0  0  0
   -1.0243    0.1999    0.4232 C   0  0  0  0  0  0  0  0  0  0  0  0
   -1.7005   -0.7885    1.3274 N   0  0  0  0  0  0  0  0  0  0  0  0
   -1.9919    0.5236   -0.6580 C   0  0  0  0  0  0  0  0  0  0  0  0
   -2.4961   -0.5611   -1.4423 N   0  0  0  0  0  4  0  0  0  0  0  0
   -0.8952    1.4018    1.3187 C   0  0  0  0  0  0  0  0  0  0  0  0
   -0.1027    1.1724    2.4382 O   0  0  0  0  0  0  0  0  0  0  0  0
  1  2  1  0
  2  3  1  0
  3  4  1  0
  4  5  2  0
  2  6  2  3
  6  7  1  0
  6  8  1  0
  8  9  1  0
  8 10  1  0
 10 11  1  0
  8 12  1  0
 12 13  1  0
M  CHG  1  11   1
M  END

