COC1=C(CO)SN=C1C(N)C#C
     RDKit          3D

 13 13  0  0  0  0  0  0  0  0999 V2000
    1.1568   -1.8002    0.8617 C   0  0  0  0  0  0  0  0  0  0  0  0
    0.6323   -0.5038    1.0849 O   0  0  0  0  0  0  0  0  0  0  0  0
    0.3865    0.2859   -0.0734 C   0  0  0  0  0  0  0  0  0  0  0  0
    1.3561    1.1070   -0.5837 C   0  0  0  0  0  0  0  0  0  0  0  0
    2.7509    1.2959   -0.0375 C   0  0  0  0  0  0  0  0  0  0  0  0
    3.3857    2.2091   -0.8563 O   0  0  0  0  0  0  0  0  0  0  0  0
    0.5855    1.8087   -1.9256 S   0  0  0  0  0  0  0  0  0  0  0  0
   -0.9085    1.0514   -1.7945 N   0  0  0  0  0  0  0  0  0  0  0  0
   -0.7956    0.2650   -0.7159 C   0  0  0  0  0  0  0  0  0  0  0  0
   -1.9820   -0.5890   -0.2862 C   0  0  0  0  0  0  0  0  0  0  0  0
   -2.5676   -1.2391   -1.4342 N   0  0  0  0  0  0  0  0  0  0  0  0
   -3.0016    0.2385    0.3500 C   0  0  0  0  0  0  0  0  0  0  0  0
   -3.8475    0.9339    0.8740 C   0  0  0  0  0  0  0  0  0  0  0  0
  1  2  1  0
  2  3  1  0
  3  4  2  0
  4  5  1  0
  5  6  1  0
  4  7  1  0
  7  8  1  0
  8  9  2  0
  9 10  1  0
 10 11  1  0
 10 12  1  0
 12 13  3  0
  9  3  1  0
M  END

