
     RDKit          3D

 19 20  0  0  0  0  0  0  0  0999 V2000
   -1.8898   -2.6824   -0.4808 C   0  0  0  0  0  0  0  0  0  0  0  0
   -1.5677   -1.2596   -0.2024 N   0  0  0  0  0  0  0  0  0  0  0  0
   -2.6473   -0.3273   -0.0756 C   0  0  0  0  0  0  0  0  0  0  0  0
   -2.1911    1.0568    0.1870 C   0  0  0  0  0  0  0  0  0  0  0  0
   -3.3647    2.0303    0.3218 C   0  0  0  0  0  0  0  0  0  0  0  0
   -4.1971    1.6793    1.3538 F   0  0  0  0  0  0  0  0  0  0  0  0
   -4.0378    2.0747   -0.8848 F   0  0  0  0  0  0  0  0  0  0  0  0
   -2.8982    3.3022    0.5802 F   0  0  0  0  0  0  0  0  0  0  0  0
   -0.1808   -0.9284   -0.0793 C   0  0  0  0  0  0  0  0  0  0  0  0
    0.2567    0.3074    0.1780 N   0  0  0  0  0  0  0  0  0  0  0  0
    1.5526    0.6150    0.2925 C   0  0  0  0  0  0  0  0  0  0  0  0
    1.9896    1.8961    0.5585 C   0  0  0  0  0  0  0  0  0  0  0  0
    3.3435    2.1430    0.6638 C   0  0  0  0  0  0  0  0  0  0  0  0
    4.2781    1.1348    0.5089 C   0  0  0  0  0  0  0  0  0  0  0  0
    3.8446   -0.1455    0.2431 C   0  0  0  0  0  0  0  0  0  0  0  0
    2.4948   -0.3952    0.1374 C   0  0  0  0  0  0  0  0  0  0  0  0
    2.0415   -1.6667   -0.1273 C   0  0  0  0  0  0  0  0  0  0  0  0
    2.9042   -2.5859   -0.2682 O   0  0  0  0  0  0  0  0  0  0  0  0
    0.7383   -1.9024   -0.2283 N   0  0  0  0  0  0  0  0  0  0  0  0
  1  2  1  0
  2  3  1  0
  3  4  1  0
  4  5  1  0
  5  6  1  0
  5  7  1  0
  5  8  1  0
  2  9  1  0
  9 10  2  0
 10 11  1  0
 11 12  2  0
 12 13  1  0
 13 14  2  0
 14 15  1  0
 15 16  2  0
 16 17  1  0
 17 18  2  0
 17 19  1  0
 19  9  1  0
 16 11  1  0
M  END

