
     RDKit          3D

 10  9  0  0  0  0  0  0  0  0999 V2000
    2.9025   -0.5165    1.2971 C   0  0  0  0  0  0  0  0  0  0  0  0
    2.4744   -0.2682   -0.1156 C   0  0  0  0  0  0  0  0  0  0  0  0
    3.0910    0.8581   -0.6665 O   0  0  0  0  0  0  0  0  0  0  0  0
    1.0214   -0.0659   -0.1055 C   0  0  0  0  0  0  0  0  0  0  0  0
   -0.1891    0.0978   -0.1145 C   0  0  0  0  0  0  0  0  0  0  0  0
   -1.6392    0.3097   -0.1455 C   0  0  0  0  0  0  0  0  0  0  0  0
   -2.2303   -0.1780    1.1512 C   0  0  0  0  0  0  0  0  0  0  0  0
   -2.2655   -0.4525   -1.3150 C   0  0  0  0  0  0  0  0  0  0  0  0
   -1.9762    1.7194   -0.3303 C   0  0  0  0  0  0  0  0  0  0  0  0
   -2.2578    2.8299   -0.4814 N   0  0  0  0  0  0  0  0  0  0  0  0
  1  2  1  0
  2  3  1  0
  2  4  1  0
  4  5  3  0
  5  6  1  0
  6  7  1  0
  6  8  1  0
  6  9  1  0
  9 10  3  0
M  END

