
     RDKit          3D

 25 26  0  0  0  0  0  0  0  0999 V2000
   -3.5985    0.9409   -1.5872 B   0  0  0  0  0  0  0  0  0  0  0  0
   -4.8451   -0.0367   -1.3926 O   0  0  0  0  0  0  0  0  0  0  0  0
   -4.3796   -1.3054   -1.4604 C   0  0  0  0  0  0  0  0  0  0  0  0
   -4.8564   -2.1226   -0.2564 C   0  0  0  0  0  0  0  0  0  0  0  0
   -6.2522   -2.1658   -0.0381 N   0  0  0  0  0  0  0  0  0  0  0  0
   -3.6354    1.5230   -0.1021 O   0  0  0  0  0  0  0  0  0  0  0  0
   -4.3974    2.7075   -0.2544 C   0  0  0  0  0  0  0  0  0  0  0  0
   -5.7082    2.5318    0.4716 C   0  0  0  0  0  0  0  0  0  0  0  0
   -5.6581    2.2772    1.8637 N   0  0  0  0  0  0  0  0  0  0  0  0
   -2.4066    0.2665   -1.9402 O   0  0  0  0  0  0  0  0  0  0  0  0
   -1.2561   -0.0625   -1.2463 C   0  0  0  0  0  0  0  0  0  0  0  0
   -0.2749   -0.8462   -1.8231 C   0  0  0  0  0  0  0  0  0  0  0  0
    0.9026   -1.1814   -1.1332 C   0  0  0  0  0  0  0  0  0  0  0  0
    1.1566   -0.7567    0.1308 C   0  0  0  0  0  0  0  0  0  0  0  0
    0.1690    0.0271    0.7213 C   0  0  0  0  0  0  0  0  0  0  0  0
   -1.0113    0.3556    0.0220 C   0  0  0  0  0  0  0  0  0  0  0  0
    2.4555   -1.0363    0.8020 C   0  0  0  0  0  0  0  0  0  0  0  0
    3.3774    0.0350    1.0758 C   0  0  0  0  0  0  0  0  0  0  0  0
    4.1853    0.6619   -0.0256 C   0  0  0  0  0  0  0  0  0  0  0  0
    5.5696    0.1335   -0.1552 C   0  0  0  0  0  0  0  0  0  0  0  0
    6.5880    1.0155    0.2377 C   0  0  0  0  0  0  0  0  0  0  0  0
    7.9056    0.7100    0.2758 C   0  0  0  0  0  0  0  0  0  0  0  0
    8.2670   -0.5737   -0.0974 C   0  0  0  0  0  0  0  0  0  0  0  0
    7.2704   -1.4712   -0.4906 C   0  0  0  0  0  0  0  0  0  0  0  0
    5.9012   -1.1288   -0.5292 C   0  0  0  0  0  0  0  0  0  0  0  0
  1  2  1  0
  2  3  1  0
  3  4  1  0
  4  5  1  0
  1  6  1  0
  6  7  1  0
  7  8  1  0
  8  9  1  0
  1 10  1  0
 10 11  1  0
 11 12  2  0
 12 13  1  0
 13 14  2  0
 14 15  1  0
 15 16  2  0
 14 17  1  0
 17 18  1  0
 18 19  1  0
 19 20  1  0
 20 21  2  0
 21 22  1  0
 22 23  2  0
 23 24  1  0
 24 25  2  0
 16 11  1  0
 25 20  1  0
M  END

