
     RDKit          3D

 13 12  0  0  0  0  0  0  0  0999 V2000
    0.4014    2.4768   -0.4881 C   0  0  0  0  0  0  0  0  0  0  0  0
    1.1191    1.2498   -0.0855 C   0  0  0  0  0  0  0  0  0  0  0  0
    0.4196    0.2890    0.6428 O   0  0  0  0  0  0  0  0  0  0  0  0
   -0.5950   -0.4745    0.1306 C   0  0  0  0  0  0  0  0  0  0  0  0
   -0.4391   -1.2307   -0.9633 C   0  0  0  0  0  0  0  0  0  0  0  0
   -1.9109   -0.4536    0.8236 C   0  0  0  0  0  0  0  0  0  0  0  0
   -2.3982    0.9349    0.8090 N   0  0  0  0  0  0  0  0  0  0  0  0
   -2.8651   -1.3203    0.1128 C   0  0  0  0  0  0  0  0  0  0  0  0
   -3.6637   -2.0172   -0.4731 C   0  0  0  0  0  0  0  0  0  0  0  0
    2.3824    1.0232   -0.3815 C   0  0  0  0  0  0  0  0  0  0  0  0
    3.0537   -0.1958    0.0321 C   0  0  0  0  0  0  0  0  0  0  0  0
    2.4007   -1.1013    0.7166 N   0  0  0  0  0  0  0  0  0  0  0  0
    3.0032   -2.2519    1.1172 O   0  0  0  0  0  0  0  0  0  0  0  0
  1  2  1  0
  2  3  1  0
  3  4  1  0
  4  5  2  0
  4  6  1  0
  6  7  1  0
  6  8  1  0
  8  9  3  0
  2 10  2  3
 10 11  1  0
 11 12  2  3
 12 13  1  0
M  END

