CC(O)C#CCCCCC(=C)C=O
     RDKit          3D

 13 12  0  0  0  0  0  0  0  0999 V2000
    5.0715    0.4243   -0.9352 C   0  0  0  0  0  0  0  0  0  0  0  0
    4.5813   -0.6810   -0.0130 C   0  0  0  0  0  0  0  0  0  0  0  0
    4.8311   -0.4094    1.3195 O   0  0  0  0  0  0  0  0  0  0  0  0
    3.1108   -0.7958   -0.1498 C   0  0  0  0  0  0  0  0  0  0  0  0
    1.9158   -0.8829   -0.2783 C   0  0  0  0  0  0  0  0  0  0  0  0
    0.4889   -1.0041   -0.4503 C   0  0  0  0  0  0  0  0  0  0  0  0
   -0.2783    0.1373    0.2254 C   0  0  0  0  0  0  0  0  0  0  0  0
   -1.7320   -0.1065   -0.0266 C   0  0  0  0  0  0  0  0  0  0  0  0
   -2.6312    0.9296    0.5733 C   0  0  0  0  0  0  0  0  0  0  0  0
   -4.0428    0.5298    0.2248 C   0  0  0  0  0  0  0  0  0  0  0  0
   -4.7977    1.3635   -0.4908 C   0  0  0  0  0  0  0  0  0  0  0  0
   -4.5909   -0.7411    0.6530 C   0  0  0  0  0  0  0  0  0  0  0  0
   -5.7625   -1.0394    0.3468 O   0  0  0  0  0  0  0  0  0  0  0  0
  1  2  1  0
  2  3  1  0
  2  4  1  0
  4  5  3  0
  5  6  1  0
  6  7  1  0
  7  8  1  0
  8  9  1  0
  9 10  1  0
 10 11  2  0
 10 12  1  0
 12 13  2  0
M  END

