
     RDKit          3D

 11 10  0  0  0  0  0  0  0  0999 V2000
    4.0214    0.6056   -0.4985 C   0  0  0  0  0  0  0  0  0  0  0  0
    2.5708    0.8687   -0.4078 C   0  0  0  0  0  0  0  0  0  0  0  0
    1.9351    1.4532   -1.3490 O   0  0  0  0  0  0  0  0  0  0  0  0
    1.7950    0.5095    0.6860 O   0  0  0  0  0  0  0  0  0  0  0  0
    0.4700    0.7551    0.7578 N   0  0  0  0  0  0  0  0  0  0  0  0
   -0.4743   -0.0691    0.6093 C   0  0  0  0  0  0  0  0  0  0  0  0
   -0.1417   -1.4438    0.3288 N   0  0  0  0  0  0  0  0  0  0  0  0
   -1.8646    0.3484    0.7166 C   0  0  0  0  0  0  0  0  0  0  0  0
   -2.8631   -0.5264    0.5589 C   0  0  0  0  0  0  0  0  0  0  0  0
   -4.2477   -0.1142    0.6651 C   0  0  0  0  0  0  0  0  0  0  0  0
   -5.1772   -0.9379    0.5164 O   0  0  0  0  0  0  0  0  0  0  0  0
  1  2  1  0
  2  3  2  0
  2  4  1  0
  4  5  1  0
  5  6  2  3
  6  7  1  0
  6  8  1  0
  8  9  2  3
  9 10  1  0
 10 11  2  0
M  END

