
     RDKit          3D

 14 13  0  0  0  0  0  0  0  0999 V2000
    3.7515    1.2705    0.6766 C   0  0  0  0  0  0  0  0  0  0  0  0
    3.0075    0.6741   -0.5039 C   0  0  0  0  0  0  0  0  0  0  0  0
    2.4400    1.7142   -1.2710 O   0  0  0  0  0  0  0  0  0  0  0  0
    1.8756   -0.1542   -0.0640 C   0  0  0  0  0  0  0  0  0  0  0  0
    0.9322   -0.8185    0.3003 C   0  0  0  0  0  0  0  0  0  0  0  0
   -0.2235   -1.6071    0.7550 C   0  0  0  0  0  0  0  0  0  0  0  0
    0.3034   -3.0291    1.0628 C   0  0  0  0  0  0  0  0  0  0  0  0
   -1.1972   -1.6758   -0.3635 C   0  0  0  0  0  0  0  0  0  0  0  0
   -1.7415   -0.4193   -0.8941 C   0  0  0  0  0  0  0  0  0  0  0  0
   -2.4931    0.4652    0.0365 C   0  0  0  0  0  0  0  0  0  0  0  0
   -3.0103    1.7199   -0.6882 C   0  0  0  0  0  0  0  0  0  0  0  0
   -1.9821    2.4630   -1.2221 O   0  0  0  0  0  0  0  0  0  0  0  0
   -1.6490    1.0006    1.1343 C   0  0  0  0  0  0  0  0  0  0  0  0
   -0.9922    1.4474    1.9919 N   0  0  0  0  0  0  0  0  0  0  0  0
  1  2  1  0
  2  3  1  0
  2  4  1  0
  4  5  3  0
  5  6  1  0
  6  7  1  0
  6  8  1  0
  8  9  1  0
  9 10  1  0
 10 11  1  0
 11 12  1  0
 10 13  1  0
 13 14  3  0
M  END

