CC(NC(C(O)CO)C(C)=O)C#N
     RDKit          3D

 13 12  0  0  0  0  0  0  0  0999 V2000
   -2.7332   -0.3060    0.0614 C   0  0  0  0  0  0  0  0  0  0  0  0
   -1.6534   -1.1783    0.6526 C   0  0  0  0  0  0  0  0  0  0  0  0
   -0.4281   -0.5448    0.8508 N   0  0  0  0  0  0  0  0  0  0  0  0
    0.2139    0.1751   -0.1608 C   0  0  0  0  0  0  0  0  0  0  0  0
    1.6459    0.4653    0.1510 C   0  0  0  0  0  0  0  0  0  0  0  0
    2.0201    1.3882   -0.8591 O   0  0  0  0  0  0  0  0  0  0  0  0
    2.5294   -0.7519   -0.0716 C   0  0  0  0  0  0  0  0  0  0  0  0
    2.5030   -1.6695    0.9491 O   0  0  0  0  0  0  0  0  0  0  0  0
   -0.4377    1.5004   -0.5019 C   0  0  0  0  0  0  0  0  0  0  0  0
   -0.3192    2.4932    0.6624 C   0  0  0  0  0  0  0  0  0  0  0  0
   -0.9258    1.8003   -1.4579 O   0  0  0  0  0  0  0  0  0  0  0  0
   -1.6413   -2.4725    0.0544 C   0  0  0  0  0  0  0  0  0  0  0  0
   -1.6745   -3.5163   -0.4210 N   0  0  0  0  0  0  0  0  0  0  0  0
  1  2  1  0
  2  3  1  0
  3  4  1  0
  4  5  1  0
  5  6  1  0
  5  7  1  0
  7  8  1  0
  4  9  1  0
  9 10  1  0
  9 11  2  0
  2 12  1  0
 12 13  3  0
M  END

