CCC1=CC(=O)NC(=N1)N2CCN(CC2)S(=O)(=O)C
     RDKit          3D

 19 20  0  0  0  0  0  0  0  0999 V2000
   -4.9877   -0.6320   -1.5666 C   0  0  0  0  0  0  0  0  0  0  0  0
   -4.5577   -0.7071   -0.1186 C   0  0  0  0  0  0  0  0  0  0  0  0
   -3.4475    0.2450    0.1611 C   0  0  0  0  0  0  0  0  0  0  0  0
   -3.7390    1.5276    0.5697 C   0  0  0  0  0  0  0  0  0  0  0  0
   -2.6988    2.3945    0.8238 C   0  0  0  0  0  0  0  0  0  0  0  0
   -2.9437    3.5861    1.2029 O   0  0  0  0  0  0  0  0  0  0  0  0
   -1.4346    1.9812    0.6714 N   0  0  0  0  0  0  0  0  0  0  0  0
   -1.1562    0.7386    0.2757 C   0  0  0  0  0  0  0  0  0  0  0  0
   -2.1592   -0.1135    0.0255 N   0  0  0  0  0  0  0  0  0  0  0  0
    0.1726    0.2805    0.1080 N   0  0  0  0  0  0  0  0  0  0  0  0
    1.2485    1.1810    0.3714 C   0  0  0  0  0  0  0  0  0  0  0  0
    2.6125    0.6722    0.0858 C   0  0  0  0  0  0  0  0  0  0  0  0
    2.8333   -0.6978    0.2677 N   0  0  0  0  0  0  0  0  0  0  0  0
    1.7250   -1.5641    0.3500 C   0  0  0  0  0  0  0  0  0  0  0  0
    0.4732   -1.0569   -0.3173 C   0  0  0  0  0  0  0  0  0  0  0  0
    4.2497   -1.3368   -0.4051 S   0  0  0  0  0  6  0  0  0  0  0  0
    4.3759   -1.1607   -1.8753 O   0  0  0  0  0  0  0  0  0  0  0  0
    4.3659   -2.7929   -0.0425 O   0  0  0  0  0  0  0  0  0  0  0  0
    5.6452   -0.5143    0.3761 C   0  0  0  0  0  0  0  0  0  0  0  0
  1  2  1  0
  2  3  1  0
  3  4  2  0
  4  5  1  0
  5  6  2  0
  5  7  1  0
  7  8  1  0
  8  9  2  0
  8 10  1  0
 10 11  1  0
 11 12  1  0
 12 13  1  0
 13 14  1  0
 14 15  1  0
 13 16  1  0
 16 17  2  0
 16 18  2  0
 16 19  1  0
  9  3  1  0
 15 10  1  0
M  END

