C1=CC(=C(C(=C1C(F)F)Cl)Br)Cl
     RDKit          3D

 12 12  0  0  0  0  0  0  0  0999 V2000
    0.1579   -1.2233   -0.2001 C   0  0  0  0  0  0  0  0  0  0  0  0
   -1.2247   -1.3550   -0.1771 C   0  0  0  0  0  0  0  0  0  0  0  0
   -2.0264   -0.2459    0.0255 C   0  0  0  0  0  0  0  0  0  0  0  0
   -1.4345    0.9896    0.2038 C   0  0  0  0  0  0  0  0  0  0  0  0
   -0.0439    1.1102    0.1787 C   0  0  0  0  0  0  0  0  0  0  0  0
    0.7506    0.0013   -0.0235 C   0  0  0  0  0  0  0  0  0  0  0  0
    2.2476    0.1185   -0.0525 C   0  0  0  0  0  0  0  0  0  0  0  0
    2.8217   -0.6695    0.9258 F   0  0  0  0  0  0  0  0  0  0  0  0
    2.7617   -0.2861   -1.2582 F   0  0  0  0  0  0  0  0  0  0  0  0
    0.6998    2.6654    0.4032 Cl  0  0  0  0  0  0  0  0  0  0  0  0
   -2.4764    2.5613    0.4878 Br  0  0  0  0  0  0  0  0  0  0  0  0
   -3.7811   -0.3952    0.0575 Cl  0  0  0  0  0  0  0  0  0  0  0  0
  1  2  2  0
  2  3  1  0
  3  4  2  0
  4  5  1  0
  5  6  2  0
  6  7  1  0
  7  8  1  0
  7  9  1  0
  5 10  1  0
  4 11  1  0
  3 12  1  0
  6  1  1  0
M  END

