
     RDKit          3D

 18 19  0  0  0  0  0  0  0  0999 V2000
    3.8761    1.2061    0.3249 C   0  0  0  0  0  0  0  0  0  0  0  0
    4.8839    0.4616    0.8758 C   0  0  0  0  0  0  0  0  0  0  0  0
    4.6501   -0.8535    1.1053 C   0  0  0  0  0  0  0  0  0  0  0  0
    3.4275   -1.4761    0.8035 C   0  0  0  0  0  0  0  0  0  0  0  0
    2.3927   -0.7157    0.2388 C   0  0  0  0  0  0  0  0  0  0  0  0
    2.6665    0.6122    0.0210 C   0  0  0  0  0  0  0  0  0  0  0  0
    1.1287   -1.3633   -0.0723 C   0  0  0  0  0  0  0  0  0  0  0  0
    0.1276   -0.7655   -0.5853 N   0  0  0  0  0  0  0  0  0  0  0  0
    0.0252    0.4885   -0.9240 N   0  0  0  0  0  0  0  0  0  0  0  0
   -0.9797    1.2337   -0.9820 C   0  0  0  0  0  0  0  0  0  0  0  0
   -2.3234    0.8651   -0.6762 C   0  0  0  0  0  0  0  0  0  0  0  0
   -3.2681    1.9049   -0.7306 C   0  0  0  0  0  0  0  0  0  0  0  0
   -4.5866    1.6854   -0.4301 C   0  0  0  0  0  0  0  0  0  0  0  0
   -5.0516    0.4441   -0.0620 C   0  0  0  0  0  0  0  0  0  0  0  0
   -4.1617   -0.5949    0.0022 C   0  0  0  0  0  0  0  0  0  0  0  0
   -2.8133   -0.3407   -0.3121 C   0  0  0  0  0  0  0  0  0  0  0  0
   -1.9917   -1.4222   -0.2290 O   0  0  0  0  0  0  0  0  0  0  0  0
    3.2789   -2.8164    1.0704 O   0  0  0  0  0  0  0  0  0  0  0  0
  1  2  2  0
  2  3  1  0
  3  4  2  0
  4  5  1  0
  5  6  2  0
  5  7  1  0
  7  8  2  0
  8  9  1  0
  9 10  2  0
 10 11  1  0
 11 12  2  0
 12 13  1  0
 13 14  2  0
 14 15  1  0
 15 16  2  0
 16 17  1  0
  4 18  1  0
  6  1  1  0
 16 11  1  0
M  END

