
     RDKit          3D

 10 10  0  0  0  0  0  0  0  0999 V2000
   -1.2086   -1.1845    0.8112 C   0  0  0  0  0  0  0  0  0  0  0  0
   -1.3847    0.0332    0.1002 N   0  0  0  0  0  0  0  0  0  0  0  0
   -2.7133    0.3523   -0.2772 C   0  0  0  0  0  0  0  0  0  0  0  0
   -0.4084    0.2395   -0.9445 C   0  0  0  0  0  0  0  0  0  0  0  0
    0.9370    0.2646   -0.3526 N   0  0  0  0  0  0  0  0  0  0  0  0
    1.7365   -0.7937   -0.1718 C   0  0  0  0  0  0  0  0  0  0  0  0
    2.8854   -0.2974    0.4097 C   0  0  0  0  0  0  0  0  0  0  0  0
    2.7549    1.0334    0.5648 N   0  0  0  0  0  0  0  0  0  0  0  0
    1.5463    1.3828    0.0921 C   0  0  0  0  0  0  0  0  0  0  0  0
    0.9428    2.9072    0.0713 S   0  0  0  0  0  0  0  0  0  0  0  0
  1  2  1  0
  2  3  1  0
  2  4  1  0
  4  5  1  0
  5  6  1  0
  6  7  2  0
  7  8  1  0
  8  9  1  0
  9 10  2  0
  9  5  1  0
M  END

