
     RDKit          3D

 15 15  0  0  0  0  0  0  0  0999 V2000
   -1.2197   -1.7576    0.8695 C   0  0  0  0  0  0  0  0  0  0  0  0
   -1.1459   -0.2884    0.3625 C   0  0  0  0  0  0  0  0  0  0  0  0
    0.0940   -0.2521   -0.4101 N   0  0  0  0  0  0  0  0  0  0  0  0
    1.2718    0.2755    0.1766 C   0  0  0  0  0  0  0  0  0  0  0  0
    2.4894   -0.4482    0.0304 C   0  0  0  0  0  0  0  0  0  0  0  0
    2.4436   -1.8420   -0.5788 C   0  0  0  0  0  0  0  0  0  0  0  0
    3.2817   -1.8735   -1.7379 O   0  0  0  0  0  0  0  0  0  0  0  0
    3.4071    0.2492    0.6080 N   0  0  0  0  0  0  0  0  0  0  0  0
    2.8883    1.3691    1.1256 C   0  0  0  0  0  0  0  0  0  0  0  0
    1.5815    1.3550    0.8275 N   0  0  0  0  0  0  0  0  0  0  0  0
    0.7238    2.5528    0.9474 C   0  0  0  0  0  0  0  0  0  0  0  0
   -2.3178    0.0727   -0.4319 C   0  0  0  0  0  0  0  0  0  0  0  0
   -2.5216   -0.4341   -1.7884 C   0  0  0  0  0  0  0  0  0  0  0  0
   -3.2046    0.7453    0.1164 N   0  0  0  0  0  0  0  0  0  0  0  0
   -3.8742    1.3757    0.8777 O   0  0  0  0  0  0  0  0  0  0  0  0
  1  2  1  0
  2  3  1  0
  3  4  1  0
  4  5  2  0
  5  6  1  0
  6  7  1  0
  5  8  1  0
  8  9  2  0
  9 10  1  0
 10 11  1  0
  2 12  1  0
 12 13  1  0
 12 14  2  3
 14 15  1  0
 10  4  1  0
M  END

