C1=CC(=CC=C1NC(=O)NCCCC2=NNC(=O)N2)Cl
     RDKit          3D

 20 21  0  0  0  0  0  0  0  0999 V2000
    3.7009   -1.7467    0.7552 C   0  0  0  0  0  0  0  0  0  0  0  0
    4.8190   -2.1820    1.4117 C   0  0  0  0  0  0  0  0  0  0  0  0
    5.6547   -1.2920    2.0162 C   0  0  0  0  0  0  0  0  0  0  0  0
    5.4035    0.0686    1.9870 C   0  0  0  0  0  0  0  0  0  0  0  0
    4.2810    0.5200    1.3285 C   0  0  0  0  0  0  0  0  0  0  0  0
    3.4150   -0.3776    0.7055 C   0  0  0  0  0  0  0  0  0  0  0  0
    2.2657    0.0175    0.0740 N   0  0  0  0  0  0  0  0  0  0  0  0
    1.1391    0.4048   -0.5453 C   0  0  0  0  0  0  0  0  0  0  0  0
    1.0248    0.7808   -1.7658 O   0  0  0  0  0  0  0  0  0  0  0  0
   -0.1435    0.4422    0.1458 N   0  0  0  0  0  0  0  0  0  0  0  0
   -1.3462    0.8393   -0.5023 C   0  0  0  0  0  0  0  0  0  0  0  0
   -1.6970   -0.0895   -1.6089 C   0  0  0  0  0  0  0  0  0  0  0  0
   -3.0049    0.3129   -2.2875 C   0  0  0  0  0  0  0  0  0  0  0  0
   -4.1029    0.3017   -1.2639 C   0  0  0  0  0  0  0  0  0  0  0  0
   -4.9113   -0.6927   -0.9019 N   0  0  0  0  0  0  0  0  0  0  0  0
   -5.7471   -0.2830    0.0538 N   0  0  0  0  0  0  0  0  0  0  0  0
   -5.4709    0.9942    0.3089 C   0  0  0  0  0  0  0  0  0  0  0  0
   -6.0373    1.7362    1.1436 O   0  0  0  0  0  0  0  0  0  0  0  0
   -4.4531    1.3565   -0.5064 N   0  0  0  0  0  0  0  0  0  0  0  0
    7.0509   -1.9369    2.8304 Cl  0  0  0  0  0  0  0  0  0  0  0  0
  1  2  2  0
  2  3  1  0
  3  4  2  0
  4  5  1  0
  5  6  2  0
  6  7  1  0
  7  8  1  0
  8  9  2  0
  8 10  1  0
 10 11  1  0
 11 12  1  0
 12 13  1  0
 13 14  1  0
 14 15  2  0
 15 16  1  0
 16 17  1  0
 17 18  2  0
 17 19  1  0
  3 20  1  0
  6  1  1  0
 19 14  1  0
M  END

