
     RDKit          3D

 20 21  0  0  0  0  0  0  0  0999 V2000
   -5.4985    0.2006    0.3512 C   0  0  0  0  0  0  0  0  0  0  0  0
   -5.0040    0.3205   -0.9209 C   0  0  0  0  0  0  0  0  0  0  0  0
   -3.6609    0.0884   -1.2034 C   0  0  0  0  0  0  0  0  0  0  0  0
   -2.7888   -0.2720   -0.1948 C   0  0  0  0  0  0  0  0  0  0  0  0
   -3.3125   -0.3869    1.0834 C   0  0  0  0  0  0  0  0  0  0  0  0
   -4.6375   -0.1585    1.3655 C   0  0  0  0  0  0  0  0  0  0  0  0
   -1.0948   -0.5730   -0.5045 S   0  0  0  0  0  6  0  0  0  0  0  0
   -0.9157   -1.1449   -1.8737 O   0  0  0  0  0  0  0  0  0  0  0  0
   -0.6191   -1.5677    0.5103 O   0  0  0  0  0  0  0  0  0  0  0  0
   -0.1679    0.9093   -0.3342 N   0  0  0  0  0  0  0  0  0  0  0  0
    0.3217    1.1830    0.8885 N   0  0  0  0  0  0  0  0  0  0  0  0
    1.4785    0.9760    1.3126 C   0  0  0  0  0  0  0  0  0  0  0  0
    2.5345    0.3916    0.5580 C   0  0  0  0  0  0  0  0  0  0  0  0
    3.7600    0.2506    1.2334 C   0  0  0  0  0  0  0  0  0  0  0  0
    4.8489   -0.3001    0.6052 C   0  0  0  0  0  0  0  0  0  0  0  0
    4.8024   -0.7408   -0.7084 C   0  0  0  0  0  0  0  0  0  0  0  0
    3.6111   -0.6093   -1.3811 C   0  0  0  0  0  0  0  0  0  0  0  0
    2.5079   -0.0445   -0.7248 C   0  0  0  0  0  0  0  0  0  0  0  0
    3.5121   -1.2003   -3.1751 Br  0  0  0  0  0  0  0  0  0  0  0  0
    3.9302    0.6540    2.5485 O   0  0  0  0  0  0  0  0  0  0  0  0
  1  2  2  0
  2  3  1  0
  3  4  2  0
  4  5  1  0
  5  6  2  0
  4  7  1  0
  7  8  2  0
  7  9  2  0
  7 10  1  0
 10 11  1  0
 11 12  2  0
 12 13  1  0
 13 14  2  0
 14 15  1  0
 15 16  2  0
 16 17  1  0
 17 18  2  0
 17 19  1  0
 14 20  1  0
  6  1  1  0
 18 13  1  0
M  END

