
     RDKit          3D

 13 14  0  0  0  0  0  0  0  0999 V2000
    2.8111   -1.2404    0.1984 C   0  0  0  0  0  0  0  0  0  0  0  0
    1.3576   -0.8028    0.1770 C   0  0  0  0  0  0  0  0  0  0  0  0
    0.6882   -1.7270   -0.6266 O   0  0  0  0  0  0  0  0  0  0  0  0
   -0.4973   -2.0458    0.0420 C   0  0  0  0  0  0  0  0  0  0  0  0
   -1.6050   -1.3343   -0.7046 C   0  0  0  0  0  0  0  0  0  0  0  0
   -2.0652   -0.1746    0.1427 C   0  0  0  0  0  0  0  0  0  0  0  0
   -1.2840    1.0032   -0.0052 N   0  0  0  0  0  0  0  0  0  0  0  0
   -1.9584    2.1625    0.0487 C   0  0  0  0  0  0  0  0  0  0  0  0
   -1.0669    3.2062   -0.1099 C   0  0  0  0  0  0  0  0  0  0  0  0
    0.1237    2.6087   -0.2541 N   0  0  0  0  0  0  0  0  0  0  0  0
    0.0132    1.2719   -0.1935 C   0  0  0  0  0  0  0  0  0  0  0  0
    1.3076    0.5833   -0.3490 C   0  0  0  0  0  0  0  0  0  0  0  0
    2.3091    1.3298    0.2816 O   0  0  0  0  0  0  0  0  0  0  0  0
  1  2  1  0
  2  3  1  0
  3  4  1  0
  4  5  1  0
  5  6  1  0
  6  7  1  0
  7  8  1  0
  8  9  2  0
  9 10  1  0
 10 11  2  0
 11 12  1  0
 12 13  1  0
 12  2  1  0
 11  7  1  0
M  END

