
     RDKit          3D

 13 12  0  0  0  0  0  0  0  0999 V2000
   -1.4277    4.2074    0.9769 C   0  0  0  0  0  0  0  0  0  0  0  0
   -0.7846    2.9502    0.6362 C   0  0  0  0  0  0  0  0  0  0  0  0
   -0.2568    1.9117    0.3340 C   0  0  0  0  0  0  0  0  0  0  0  0
    0.3867    0.6140   -0.0646 C   0  0  0  0  0  0  0  0  0  0  0  0
    1.6405    0.7255   -0.2733 C   0  0  0  0  0  0  0  0  0  0  0  0
    2.7288   -0.1078   -0.6564 C   0  0  0  0  0  0  0  0  0  0  0  0
    2.6668   -1.4615   -0.9466 N   0  0  0  0  0  0  0  0  0  0  0  0
    3.9459    0.4117   -0.7614 N   0  0  0  0  0  0  0  0  0  0  0  0
   -0.5167   -0.4790   -0.1112 C   0  0  0  0  0  0  0  0  0  0  0  0
   -1.8238   -0.1939    0.1733 C   0  0  0  0  0  0  0  0  0  0  0  0
   -0.2040   -1.8846   -0.4053 C   0  0  0  0  0  0  0  0  0  0  0  0
   -1.4555   -2.7538   -0.1891 C   0  0  0  0  0  0  0  0  0  0  0  0
   -1.8601   -2.6961    1.1394 O   0  0  0  0  0  0  0  0  0  0  0  0
  1  2  1  0
  2  3  3  0
  3  4  1  0
  4  5  2  3
  5  6  1  0
  6  7  1  0
  6  8  2  0
  4  9  1  0
  9 10  2  0
  9 11  1  0
 11 12  1  0
 12 13  1  0
M  END

