
     RDKit          3D

 19 19  0  0  0  0  0  0  0  0999 V2000
    0.4963    0.4148    1.7088 C   0  0  0  0  0  0  0  0  0  0  0  0
   -0.6435    0.1430    0.8256 C   0  0  0  0  0  0  0  0  0  0  0  0
   -0.5937   -0.8865   -0.0673 C   0  0  0  0  0  0  0  0  0  0  0  0
   -1.8042   -1.0427   -0.7961 C   0  0  0  0  0  0  0  0  0  0  0  0
   -1.8525   -1.9802   -1.6517 O   0  0  0  0  0  0  0  0  0  0  0  0
   -2.8647   -0.2487   -0.6087 N   0  0  0  0  0  0  0  0  0  0  0  0
   -2.8713    0.7442    0.2693 C   0  0  0  0  0  0  0  0  0  0  0  0
   -1.7599    0.9258    0.9744 N   0  0  0  0  0  0  0  0  0  0  0  0
   -4.0017    1.6477    0.5162 C   0  0  0  0  0  0  0  0  0  0  0  0
   -4.4634    2.3746   -0.7184 C   0  0  0  0  0  0  0  0  0  0  0  0
   -5.1412    0.7990    1.0771 C   0  0  0  0  0  0  0  0  0  0  0  0
    0.5184   -1.7402   -0.3871 C   0  0  0  0  0  0  0  0  0  0  0  0
    0.1162   -2.6906   -1.2768 O   0  0  0  0  0  0  0  0  0  0  0  0
    1.8310   -1.9382   -0.1250 N   0  0  0  0  0  0  0  0  0  0  0  0
    2.4026   -3.1471   -0.8983 C   0  0  0  0  0  0  0  0  0  0  0  0
    2.8502   -1.3349    0.6565 C   0  0  0  0  0  0  0  0  0  0  0  0
    3.5918   -0.2342   -0.0882 C   0  0  0  0  0  0  0  0  0  0  0  0
    4.8586    0.4872    0.9843 S   0  0  0  0  0  0  0  0  0  0  0  0
    5.7752    1.7908    0.1791 C   0  0  0  0  0  0  0  0  0  0  0  0
  1  2  1  0
  2  3  2  0
  3  4  1  0
  4  5  2  0
  4  6  1  0
  6  7  1  0
  7  8  2  0
  7  9  1  0
  9 10  1  0
  9 11  1  0
  3 12  1  0
 12 13  2  0
 12 14  1  0
 14 15  1  0
 14 16  1  0
 16 17  1  0
 17 18  1  0
 18 19  1  0
  8  2  1  0
M  END

