
     RDKit          3D

 10  9  0  0  0  0  0  0  0  0999 V2000
   -2.1878   -0.6373   -0.5948 C   0  0  0  0  0  0  0  0  0  0  0  0
   -1.7860    0.5117    0.2910 C   0  0  0  0  0  0  0  0  0  0  0  0
   -0.5180    1.0326   -0.1652 N   0  0  0  0  0  4  0  0  0  0  0  0
    0.5922    0.1843    0.2243 C   0  0  0  0  0  0  0  0  0  0  0  0
    1.8545    0.9137   -0.1012 C   0  0  0  0  0  0  0  0  0  0  0  0
    3.0546    0.1906    0.2320 N   0  0  0  0  0  0  0  0  0  0  0  0
    3.3879   -1.0707   -0.3130 C   0  0  0  0  0  0  0  0  0  0  0  0
    2.6164   -1.6465   -1.1526 O   0  0  0  0  0  0  0  0  0  0  0  0
    4.5669   -1.6826    0.0735 O   0  0  0  0  0  1  0  0  0  0  0  0
   -3.4408   -1.2260   -0.2215 N   0  0  0  0  0  0  0  0  0  0  0  0
  1  2  1  0
  2  3  1  0
  3  4  1  0
  4  5  1  0
  5  6  1  0
  6  7  1  0
  7  8  2  0
  7  9  1  0
  1 10  1  0
M  CHG  2   3   1   9  -1
M  END

