
     RDKit          3D

 22 23  0  0  0  0  0  0  0  0999 V2000
   -3.5989    1.0849   -2.3041 C   0  0  0  0  0  0  0  0  0  0  0  0
   -3.8193    0.3487   -0.9439 C   0  0  0  0  0  0  0  0  0  0  0  0
   -4.2598    1.4946   -0.0018 C   0  0  0  0  0  0  0  0  0  0  0  0
   -2.8203   -0.3479   -0.5669 O   0  0  0  0  0  0  0  0  0  0  0  0
   -1.7969   -1.0617   -0.1807 C   0  0  0  0  0  0  0  0  0  0  0  0
   -0.5183   -0.4629   -0.0240 C   0  0  0  0  0  0  0  0  0  0  0  0
    0.5797   -1.1388    0.3706 C   0  0  0  0  0  0  0  0  0  0  0  0
    0.4709   -2.4767    0.6384 C   0  0  0  0  0  0  0  0  0  0  0  0
   -0.7489   -3.0777    0.4956 C   0  0  0  0  0  0  0  0  0  0  0  0
   -1.9074   -2.4147    0.0903 C   0  0  0  0  0  0  0  0  0  0  0  0
   -3.1303   -3.1853   -0.0154 C   0  0  0  0  0  0  0  0  0  0  0  0
   -3.0997   -4.4117    0.2610 O   0  0  0  0  0  0  0  0  0  0  0  0
   -4.3142   -2.6537   -0.3985 O   0  0  0  0  0  0  0  0  0  0  0  0
    2.0172   -3.4733    1.2038 Br  0  0  0  0  0  0  0  0  0  0  0  0
    1.7831   -0.4750    0.4959 O   0  0  0  0  0  0  0  0  0  0  0  0
    2.0207    0.8742    0.2559 C   0  0  0  0  0  0  0  0  0  0  0  0
    3.4516    1.1763    0.5092 C   0  0  0  0  0  0  0  0  0  0  0  0
    3.9156    1.4593    1.7742 C   0  0  0  0  0  0  0  0  0  0  0  0
    5.2254    1.7424    2.0469 C   0  0  0  0  0  0  0  0  0  0  0  0
    6.1305    1.7462    1.0073 C   0  0  0  0  0  0  0  0  0  0  0  0
    5.6994    1.4669   -0.2725 C   0  0  0  0  0  0  0  0  0  0  0  0
    4.3541    1.1798   -0.5288 C   0  0  0  0  0  0  0  0  0  0  0  0
  1  2  1  0
  2  3  1  0
  2  4  1  0
  4  5  1  0
  5  6  2  0
  6  7  1  0
  7  8  2  0
  8  9  1  0
  9 10  2  0
 10 11  1  0
 11 12  2  0
 11 13  1  0
  8 14  1  0
  7 15  1  0
 15 16  1  0
 16 17  1  0
 17 18  2  0
 18 19  1  0
 19 20  2  0
 20 21  1  0
 21 22  2  0
 10  5  1  0
 22 17  1  0
M  END

