
     RDKit          3D

 16 18  0  0  0  0  0  0  0  0999 V2000
   -2.9283   -1.9887   -0.9908 C   0  0  0  0  0  0  0  0  0  0  0  0
   -3.7867   -0.9242   -0.7443 C   0  0  0  0  0  0  0  0  0  0  0  0
   -3.2904    0.2675   -0.3018 C   0  0  0  0  0  0  0  0  0  0  0  0
   -1.9195    0.4367   -0.0904 C   0  0  0  0  0  0  0  0  0  0  0  0
   -1.0609   -0.6022   -0.3286 C   0  0  0  0  0  0  0  0  0  0  0  0
   -1.5808   -1.7881   -0.7719 C   0  0  0  0  0  0  0  0  0  0  0  0
    0.2253   -0.1285   -0.0282 C   0  0  0  0  0  0  0  0  0  0  0  0
    0.1533    1.1642    0.3820 C   0  0  0  0  0  0  0  0  0  0  0  0
   -1.1779    1.4644    0.3271 N   0  0  0  0  0  0  0  0  0  0  0  0
    1.1943    2.0825    0.7983 C   0  0  0  0  0  0  0  0  0  0  0  0
    2.3920    1.7870    0.8396 N   0  0  0  0  0  0  0  0  0  0  0  0
    3.0152    0.6313    0.5367 N   0  0  0  0  0  0  0  0  0  0  0  0
    3.4897    0.3775   -0.7276 C   0  0  0  0  0  0  0  0  0  0  0  0
    4.0882   -0.8132   -0.6920 N   0  0  0  0  0  0  0  0  0  0  0  0
    3.9977   -1.2820    0.5181 N   0  0  0  0  0  0  0  0  0  0  0  0
    3.3481   -0.4323    1.3087 C   0  0  0  0  0  0  0  0  0  0  0  0
  1  2  2  0
  2  3  1  0
  3  4  2  0
  4  5  1  0
  5  6  2  0
  5  7  1  0
  7  8  2  0
  8  9  1  0
  8 10  1  0
 10 11  2  0
 11 12  1  0
 12 13  1  0
 13 14  2  0
 14 15  1  0
 15 16  2  0
  6  1  1  0
  9  4  1  0
 16 12  1  0
M  END

