CC(C1CCC(C)NC1)N1NCNC1N
     RDKit          3D

 15 16  0  0  0  0  0  0  0  0999 V2000
    0.3210   -1.7517    1.0933 C   0  0  0  0  0  0  0  0  0  0  0  0
    0.7375   -0.8034    0.0192 C   0  0  0  0  0  0  0  0  0  0  0  0
   -0.4241    0.0395   -0.4816 C   0  0  0  0  0  0  0  0  0  0  0  0
   -1.5309   -0.7788   -1.0473 C   0  0  0  0  0  0  0  0  0  0  0  0
   -2.9151   -0.2622   -0.7856 C   0  0  0  0  0  0  0  0  0  0  0  0
   -3.0449    0.4689    0.5165 C   0  0  0  0  0  0  0  0  0  0  0  0
   -4.4522    0.9958    0.6258 C   0  0  0  0  0  0  0  0  0  0  0  0
   -2.1031    1.5933    0.4486 N   0  0  0  0  0  0  0  0  0  0  0  0
   -0.7881    1.0063    0.5852 C   0  0  0  0  0  0  0  0  0  0  0  0
    1.7862    0.1033    0.4481 N   0  0  0  0  0  0  0  0  0  0  0  0
    2.1564    0.9863   -0.5424 N   0  0  0  0  0  0  0  0  0  0  0  0
    3.5418    1.3417   -0.2500 C   0  0  0  0  0  0  0  0  0  0  0  0
    3.9366    0.5508    0.8976 N   0  0  0  0  0  0  0  0  0  0  0  0
    3.0021   -0.5767    0.8023 C   0  0  0  0  0  0  0  0  0  0  0  0
    3.5006   -1.4502   -0.2247 N   0  0  0  0  0  0  0  0  0  0  0  0
  1  2  1  0
  2  3  1  0
  3  4  1  0
  4  5  1  0
  5  6  1  0
  6  7  1  0
  6  8  1  0
  8  9  1  0
  2 10  1  0
 10 11  1  0
 11 12  1  0
 12 13  1  0
 13 14  1  0
 14 15  1  0
  9  3  1  0
 14 10  1  0
M  END

