
     RDKit          3D

 20 21  0  0  0  0  0  0  0  0999 V2000
   -4.7204    1.3033    0.6833 C   0  0  0  0  0  0  0  0  0  0  0  0
   -3.9686    0.0351    0.9196 C   0  0  0  0  0  0  0  0  0  0  0  0
   -4.5386   -1.0417    0.0314 C   0  0  0  0  0  0  0  0  0  0  0  0
   -4.2506   -0.3992    2.3601 C   0  0  0  0  0  0  0  0  0  0  0  0
   -2.4808    0.1686    0.7894 C   0  0  0  0  0  0  0  0  0  0  0  0
   -2.0247    0.6255   -0.5582 C   0  0  0  0  0  0  0  0  0  0  0  0
   -1.2135   -0.4022   -1.2943 C   0  0  0  0  0  0  0  0  0  0  0  0
   -0.0281   -0.8993   -0.5291 C   0  0  0  0  0  0  0  0  0  0  0  0
   -0.3447   -0.9950    0.9428 C   0  0  0  0  0  0  0  0  0  0  0  0
   -1.8532   -1.1599    1.0949 C   0  0  0  0  0  0  0  0  0  0  0  0
    1.2086   -0.0947   -0.7125 C   0  0  0  0  0  0  0  0  0  0  0  0
    2.3128   -0.7161    0.1176 C   0  0  0  0  0  0  0  0  0  0  0  0
    3.4361   -1.2329   -0.7908 C   0  0  0  0  0  0  0  0  0  0  0  0
    4.0397   -0.0072   -1.4442 C   0  0  0  0  0  0  0  0  0  0  0  0
    2.9868    0.6328   -2.2859 C   0  0  0  0  0  0  0  0  0  0  0  0
    1.6288    0.0131   -2.1532 C   0  0  0  0  0  0  0  0  0  0  0  0
    4.5548    0.9053   -0.4045 C   0  0  0  0  0  0  0  0  0  0  0  0
    4.0936    2.0616   -0.3242 O   0  0  0  0  0  0  0  0  0  0  0  0
    5.5579    0.4906    0.4969 N   0  0  0  0  0  0  0  0  0  0  0  0
    6.0468    1.3551    1.4828 N   0  0  0  0  0  0  0  0  0  0  0  0
  1  2  1  0
  2  3  1  0
  2  4  1  0
  2  5  1  0
  5  6  1  0
  6  7  1  0
  7  8  1  0
  8  9  1  0
  9 10  1  0
  8 11  1  0
 11 12  1  0
 12 13  1  0
 13 14  1  0
 14 15  1  0
 15 16  1  0
 14 17  1  0
 17 18  2  0
 17 19  1  0
 19 20  1  0
 10  5  1  0
 16 11  1  0
M  END

