
     RDKit          3D

 13 12  0  0  0  0  0  0  0  0999 V2000
   -2.4749   -0.7416   -1.5228 C   0  0  0  0  0  0  0  0  0  0  0  0
   -1.7375   -0.9545   -0.2618 C   0  0  0  0  0  0  0  0  0  0  0  0
   -1.8674   -2.1109    0.3381 C   0  0  0  0  0  0  0  0  0  0  0  0
   -0.9325    0.0868    0.2381 N   0  0  0  0  0  0  0  0  0  0  0  0
    0.0492    0.7736   -0.5266 C   0  0  0  0  0  0  0  0  0  0  0  0
    1.3348    0.5905   -0.4531 C   0  0  0  0  0  0  0  0  0  0  0  0
    2.0221   -0.3569    0.4297 C   0  0  0  0  0  0  0  0  0  0  0  0
    1.1754   -1.1351    1.2738 N   0  0  0  0  0  0  0  0  0  0  0  0
    2.2269    1.4111   -1.3430 C   0  0  0  0  0  0  0  0  0  0  0  0
    1.4742    2.2739   -2.1363 O   0  0  0  0  0  0  0  0  0  0  0  0
   -1.1051    0.4847    1.5784 C   0  0  0  0  0  0  0  0  0  0  0  0
   -0.3370    1.5305    2.1781 N   0  0  0  0  0  0  0  0  0  0  0  0
   -2.2258   -0.2739    2.4840 S   0  0  0  0  0  0  0  0  0  0  0  0
  1  2  1  0
  2  3  2  0
  2  4  1  0
  4  5  1  0
  5  6  2  3
  6  7  1  0
  7  8  1  0
  6  9  1  0
  9 10  1  0
  4 11  1  0
 11 12  1  0
 11 13  2  0
M  END

