
     RDKit          3D

 11 11  0  0  0  0  0  0  0  0999 V2000
   -3.0794   -0.6401    0.7660 C   0  0  0  0  0  0  0  0  0  0  0  0
   -1.8719   -0.1461    0.0238 C   0  0  0  0  0  0  0  0  0  0  0  0
   -0.6653   -0.4580    0.7695 N   0  0  0  0  0  0  0  0  0  0  0  0
    0.6275   -0.1003    0.2909 C   0  0  0  0  0  0  0  0  0  0  0  0
    1.3098    0.9317    0.7882 C   0  0  0  0  0  0  0  0  0  0  0  0
    2.5953    1.0562    0.1067 C   0  0  0  0  0  0  0  0  0  0  0  0
    3.3259    2.0883    0.0097 O   0  0  0  0  0  0  0  0  0  0  0  0
    2.8497   -0.3089   -0.4479 C   0  0  0  0  0  0  0  0  0  0  0  0
    1.4353   -0.7448   -0.7802 C   0  0  0  0  0  0  0  0  0  0  0  0
   -1.9395    1.3279   -0.0517 C   0  0  0  0  0  0  0  0  0  0  0  0
   -1.9981    2.4837   -0.1305 N   0  0  0  0  0  0  0  0  0  0  0  0
  1  2  1  0
  2  3  1  0
  3  4  1  0
  4  5  2  0
  5  6  1  0
  6  7  2  0
  6  8  1  0
  8  9  1  0
  2 10  1  0
 10 11  3  0
  9  4  1  0
M  END

