
     RDKit          3D

 13 14  0  0  0  0  0  0  0  0999 V2000
    1.4708   -1.2020    1.4927 C   0  0  0  0  0  0  0  0  0  0  0  0
    1.6471   -0.3830    0.2723 C   0  0  0  0  0  0  0  0  0  0  0  0
    2.9987   -0.4651   -0.3563 C   0  0  0  0  0  0  0  0  0  0  0  0
    0.7402    0.3796   -0.2856 C   0  0  0  0  0  0  0  0  0  0  0  0
    1.1187    1.0934   -1.4667 O   0  0  0  0  0  0  0  0  0  0  0  0
    0.4659    2.2833   -1.8139 C   0  0  0  0  0  0  0  0  0  0  0  0
   -0.4629    2.7173   -1.0691 N   0  0  0  0  0  0  0  0  0  0  0  0
   -0.8466    2.0354    0.0840 O   0  0  0  0  0  0  0  0  0  0  0  0
   -0.6300    0.6258    0.1136 C   0  0  0  0  0  0  0  0  0  0  0  0
   -1.2190   -0.0088    1.3269 C   0  0  0  0  0  0  0  0  0  0  0  0
   -2.5775    0.2160    0.6019 C   0  0  0  0  0  0  0  0  0  0  0  0
   -1.7397   -0.0661   -0.6658 C   0  0  0  0  0  0  0  0  0  0  0  0
   -1.5637   -1.4744   -0.8458 N   0  0  0  0  0  0  0  0  0  0  0  0
  1  2  1  0
  2  3  1  0
  2  4  2  3
  4  5  1  0
  5  6  1  0
  6  7  2  0
  7  8  1  0
  8  9  1  0
  9 10  1  0
 10 11  1  0
 11 12  1  0
 12 13  1  0
  9  4  1  0
 12  9  1  0
M  END

