C1=CC(=CC=C1C2=NC3=C(N2)C=C(C=C3)O)O
     RDKit          3D

 17 19  0  0  0  0  0  0  0  0999 V2000
   -2.1818   -1.5671   -0.3419 C   0  0  0  0  0  0  0  0  0  0  0  0
   -3.5550   -1.7663   -0.2424 C   0  0  0  0  0  0  0  0  0  0  0  0
   -4.3481   -0.7790    0.2918 C   0  0  0  0  0  0  0  0  0  0  0  0
   -3.7950    0.4046    0.7290 C   0  0  0  0  0  0  0  0  0  0  0  0
   -2.4379    0.5798    0.6213 C   0  0  0  0  0  0  0  0  0  0  0  0
   -1.6340   -0.3816    0.0968 C   0  0  0  0  0  0  0  0  0  0  0  0
   -0.1849   -0.1726   -0.0086 C   0  0  0  0  0  0  0  0  0  0  0  0
    0.7192   -1.0354   -0.5041 N   0  0  0  0  0  0  0  0  0  0  0  0
    1.9484   -0.4628   -0.4226 C   0  0  0  0  0  0  0  0  0  0  0  0
    1.7941    0.7877    0.1392 C   0  0  0  0  0  0  0  0  0  0  0  0
    0.4709    0.9389    0.3835 N   0  0  0  0  0  0  0  0  0  0  0  0
    2.8724    1.6283    0.3571 C   0  0  0  0  0  0  0  0  0  0  0  0
    4.1504    1.2357    0.0145 C   0  0  0  0  0  0  0  0  0  0  0  0
    4.3229   -0.0117   -0.5484 C   0  0  0  0  0  0  0  0  0  0  0  0
    3.2261   -0.8464   -0.7612 C   0  0  0  0  0  0  0  0  0  0  0  0
    5.2552    2.0720    0.2268 O   0  0  0  0  0  0  0  0  0  0  0  0
   -5.7356   -0.9866    0.3896 O   0  0  0  0  0  0  0  0  0  0  0  0
  1  2  2  0
  2  3  1  0
  3  4  2  0
  4  5  1  0
  5  6  2  0
  6  7  1  0
  7  8  2  0
  8  9  1  0
  9 10  2  0
 10 11  1  0
 10 12  1  0
 12 13  2  0
 13 14  1  0
 14 15  2  0
 13 16  1  0
  3 17  1  0
  6  1  1  0
 11  7  1  0
 15  9  1  0
M  END

