
     RDKit          3D

 20 22  0  0  0  0  0  0  0  0999 V2000
   -4.9638    2.1746   -1.5461 C   0  0  0  0  0  0  0  0  0  0  0  0
   -3.8648    1.3582   -0.9786 C   0  0  0  0  0  0  0  0  0  0  0  0
   -2.5540    1.7579   -0.9387 N   0  0  0  0  0  0  0  0  0  0  0  0
   -1.8462    0.8604   -0.3601 O   0  0  0  0  0  0  0  0  0  0  0  0
   -2.5833   -0.1876    0.0266 C   0  0  0  0  0  0  0  0  0  0  0  0
   -3.8428    0.1319   -0.3643 C   0  0  0  0  0  0  0  0  0  0  0  0
   -2.0597   -1.3738    0.7327 C   0  0  0  0  0  0  0  0  0  0  0  0
   -0.7774   -1.5576    1.1564 C   0  0  0  0  0  0  0  0  0  0  0  0
   -0.7755   -2.6614    1.9420 N   0  0  0  0  0  0  0  0  0  0  0  0
   -2.0018   -3.1380    1.9922 N   0  0  0  0  0  0  0  0  0  0  0  0
   -2.8328   -2.4157    1.2821 C   0  0  0  0  0  0  0  0  0  0  0  0
    0.4591   -0.9082    0.6960 C   0  0  0  0  0  0  0  0  0  0  0  0
    1.1914   -0.1053    1.7226 C   0  0  0  0  0  0  0  0  0  0  0  0
    2.4843    0.3944    1.2368 C   0  0  0  0  0  0  0  0  0  0  0  0
    2.8683    0.1092   -0.1099 N   0  0  0  0  0  0  0  0  0  0  0  0
    2.1035   -0.6781   -1.0425 C   0  0  0  0  0  0  0  0  0  0  0  0
    0.6037   -0.3619   -0.6597 C   0  0  0  0  0  0  0  0  0  0  0  0
    4.0866    0.6785   -0.5742 C   0  0  0  0  0  0  0  0  0  0  0  0
    4.5157    0.4027   -1.7447 O   0  0  0  0  0  0  0  0  0  0  0  0
    4.9092    1.6148    0.2639 C   0  0  0  0  0  0  0  0  0  0  0  0
  1  2  1  0
  2  3  2  0
  3  4  1  0
  4  5  1  0
  5  6  2  0
  5  7  1  0
  7  8  2  0
  8  9  1  0
  9 10  1  0
 10 11  2  0
  8 12  1  0
 12 13  1  0
 13 14  1  0
 14 15  1  0
 15 16  1  0
 16 17  1  0
 15 18  1  0
 18 19  2  0
 18 20  1  0
  6  2  1  0
 11  7  1  0
 17 12  1  0
M  END

