CC([NH+]=c1[nH]c(O)cs1)C1OCCC([NH3+])C1C
     RDKit          3D

 17 18  0  0  0  0  0  0  0  0999 V2000
    1.3567   -2.3799   -0.3138 C   0  0  0  0  0  0  0  0  0  0  0  0
    0.7272   -1.0455    0.0706 C   0  0  0  0  0  0  0  0  0  0  0  0
    1.0632   -0.1004   -0.9286 N   0  0  0  0  0  4  0  0  0  0  0  0
    2.2177    0.4891   -0.8403 C   0  0  0  0  0  0  0  0  0  0  0  0
    3.1817    0.3493    0.0712 N   0  0  0  0  0  0  0  0  0  0  0  0
    4.2674    1.0560   -0.0481 C   0  0  0  0  0  0  0  0  0  0  0  0
    5.3464    0.9735    0.8740 O   0  0  0  0  0  0  0  0  0  0  0  0
    4.3682    1.9131   -1.1087 C   0  0  0  0  0  0  0  0  0  0  0  0
    2.8714    1.6601   -1.9005 S   0  0  0  0  0  0  0  0  0  0  0  0
   -0.7699   -1.3285    0.1632 C   0  0  0  0  0  0  0  0  0  0  0  0
   -1.3084   -1.8224   -0.9738 O   0  0  0  0  0  0  0  0  0  0  0  0
   -2.0779   -1.0763   -1.7809 C   0  0  0  0  0  0  0  0  0  0  0  0
   -2.8314    0.0617   -1.1793 C   0  0  0  0  0  0  0  0  0  0  0  0
   -2.9183   -0.0360    0.3167 C   0  0  0  0  0  0  0  0  0  0  0  0
   -3.4626    1.1790    0.8558 N   0  0  0  0  0  4  0  0  0  0  0  0
   -1.5128   -0.2353    0.8531 C   0  0  0  0  0  0  0  0  0  0  0  0
   -0.8162    1.1079    0.7707 C   0  0  0  0  0  0  0  0  0  0  0  0
  1  2  1  0
  2  3  1  0
  3  4  2  3
  4  5  1  0
  5  6  1  0
  6  7  1  0
  6  8  2  0
  8  9  1  0
  2 10  1  0
 10 11  1  0
 11 12  1  0
 12 13  1  0
 13 14  1  0
 14 15  1  0
 14 16  1  0
 16 17  1  0
  9  4  1  0
 16 10  1  0
M  CHG  2   3   1  15   1
M  END

