CC1=C(C(=NO1)C)CNCC2CNC3=CC=NN3C2
     RDKit          3D

 19 21  0  0  0  0  0  0  0  0999 V2000
   -3.1449    2.7891   -1.0963 C   0  0  0  0  0  0  0  0  0  0  0  0
   -3.6208    1.5988   -0.3115 C   0  0  0  0  0  0  0  0  0  0  0  0
   -2.8917    0.3952   -0.1960 C   0  0  0  0  0  0  0  0  0  0  0  0
   -3.6326   -0.4583    0.5894 C   0  0  0  0  0  0  0  0  0  0  0  0
   -4.7590    0.2576    0.9092 N   0  0  0  0  0  0  0  0  0  0  0  0
   -4.6980    1.4284    0.3656 O   0  0  0  0  0  0  0  0  0  0  0  0
   -3.3512   -1.8533    1.0245 C   0  0  0  0  0  0  0  0  0  0  0  0
   -1.5963    0.1589   -0.8384 C   0  0  0  0  0  0  0  0  0  0  0  0
   -1.0865   -1.1463   -0.5151 N   0  0  0  0  0  0  0  0  0  0  0  0
    0.1569   -1.4321   -1.1991 C   0  0  0  0  0  0  0  0  0  0  0  0
    1.3274   -0.6188   -0.7444 C   0  0  0  0  0  0  0  0  0  0  0  0
    2.5535   -1.0429   -1.5677 C   0  0  0  0  0  0  0  0  0  0  0  0
    3.7687   -0.6261   -0.8992 N   0  0  0  0  0  0  0  0  0  0  0  0
    3.7690    0.2302    0.2301 C   0  0  0  0  0  0  0  0  0  0  0  0
    4.6216    1.1774    0.7440 C   0  0  0  0  0  0  0  0  0  0  0  0
    4.0526    1.6845    1.8995 C   0  0  0  0  0  0  0  0  0  0  0  0
    2.8973    1.0397    2.0429 N   0  0  0  0  0  0  0  0  0  0  0  0
    2.6933    0.1652    1.0677 N   0  0  0  0  0  0  0  0  0  0  0  0
    1.6626   -0.7882    0.6998 C   0  0  0  0  0  0  0  0  0  0  0  0
  1  2  1  0
  2  3  2  0
  3  4  1  0
  4  5  2  0
  5  6  1  0
  4  7  1  0
  3  8  1  0
  8  9  1  0
  9 10  1  0
 10 11  1  0
 11 12  1  0
 12 13  1  0
 13 14  1  0
 14 15  2  0
 15 16  1  0
 16 17  2  0
 17 18  1  0
 18 19  1  0
  6  2  1  0
 19 11  1  0
 18 14  1  0
M  END

