CCN1C=C(N=N1)C(C#N)C(C)C
     RDKit          3D

 13 13  0  0  0  0  0  0  0  0999 V2000
    4.2542   -0.2955    0.1997 C   0  0  0  0  0  0  0  0  0  0  0  0
    3.1174   -1.2728    0.4315 C   0  0  0  0  0  0  0  0  0  0  0  0
    1.9054   -0.6184    0.8586 N   0  0  0  0  0  0  0  0  0  0  0  0
    0.9242   -0.1447    0.0390 C   0  0  0  0  0  0  0  0  0  0  0  0
   -0.0778    0.4160    0.8027 C   0  0  0  0  0  0  0  0  0  0  0  0
    0.3279    0.2653    2.0766 N   0  0  0  0  0  0  0  0  0  0  0  0
    1.4849   -0.3397    2.0790 N   0  0  0  0  0  0  0  0  0  0  0  0
   -1.3356    1.0491    0.2886 C   0  0  0  0  0  0  0  0  0  0  0  0
   -1.0084    2.2313   -0.5344 C   0  0  0  0  0  0  0  0  0  0  0  0
   -0.7634    3.1660   -1.1722 N   0  0  0  0  0  0  0  0  0  0  0  0
   -2.1038    0.1009   -0.5941 C   0  0  0  0  0  0  0  0  0  0  0  0
   -2.5168   -1.1576    0.1020 C   0  0  0  0  0  0  0  0  0  0  0  0
   -3.2919    0.8713   -1.1450 C   0  0  0  0  0  0  0  0  0  0  0  0
  1  2  1  0
  2  3  1  0
  3  4  1  0
  4  5  2  0
  5  6  1  0
  6  7  2  0
  5  8  1  0
  8  9  1  0
  9 10  3  0
  8 11  1  0
 11 12  1  0
 11 13  1  0
  7  3  1  0
M  END

