B(C1=CC(=C(N=C1)[N+](=O)[O-])Br)(O)O
     RDKit          3D

 13 13  0  0  0  0  0  0  0  0999 V2000
    2.4041   -0.4682   -0.3692 B   0  0  0  0  0  0  0  0  0  0  0  0
    0.8661   -0.2103   -0.2275 C   0  0  0  0  0  0  0  0  0  0  0  0
    0.0720   -1.0034    0.5935 C   0  0  0  0  0  0  0  0  0  0  0  0
   -1.2765   -0.7158    0.6718 C   0  0  0  0  0  0  0  0  0  0  0  0
   -1.8652    0.3234   -0.0295 C   0  0  0  0  0  0  0  0  0  0  0  0
   -1.0658    1.0687   -0.8127 N   0  0  0  0  0  0  0  0  0  0  0  0
    0.2512    0.8188   -0.9140 C   0  0  0  0  0  0  0  0  0  0  0  0
   -3.2712    0.5801    0.0860 N   0  0  0  0  0  4  0  0  0  0  0  0
   -3.9278    0.3620    1.1232 O   0  0  0  0  0  0  0  0  0  0  0  0
   -3.9216    1.0900   -1.0013 O   0  0  0  0  0  1  0  0  0  0  0  0
   -2.4116   -1.7662    1.7757 Br  0  0  0  0  0  0  0  0  0  0  0  0
    3.0422    0.0659   -1.5814 O   0  0  0  0  0  0  0  0  0  0  0  0
    3.2376   -0.3950    0.8515 O   0  0  0  0  0  0  0  0  0  0  0  0
  1  2  1  0
  2  3  2  0
  3  4  1  0
  4  5  2  0
  5  6  1  0
  6  7  2  0
  5  8  1  0
  8  9  2  0
  8 10  1  0
  4 11  1  0
  1 12  1  0
  1 13  1  0
  7  2  1  0
M  CHG  2   8   1  10  -1
M  END

