
     RDKit          3D

  8  8  0  0  0  0  0  0  0  0999 V2000
   -2.1496   -0.0109    0.1937 C   0  0  0  0  0  0  0  0  0  0  0  0
   -1.2046   -0.9153   -0.0094 C   0  0  0  0  0  0  0  0  0  0  0  0
    0.0702   -0.2152    0.0258 C   0  0  0  0  0  0  0  0  0  0  0  0
    1.2983   -0.6705   -0.1222 C   0  0  0  0  0  0  0  0  0  0  0  0
    2.4537    0.2236   -0.0484 C   0  0  0  0  0  0  0  0  0  0  0  0
    4.1768   -0.5348   -0.2753 Ru  0  0  0  0  0  2  0  0  0  0  0  0
   -0.2318    1.2028    0.2726 C   0  0  0  0  0  3  0  0  0  0  0  0
   -1.5531    1.3085    0.3699 C   0  0  0  0  0  0  0  0  0  0  0  0
  1  2  2  0
  2  3  1  0
  3  4  2  0
  4  5  1  0
  5  6  2  0
  3  7  1  0
  7  8  2  0
  8  1  1  0
M  CHG  2   6   1   7  -1
M  END

