
     RDKit          3D

 19 19  0  0  0  0  0  0  0  0999 V2000
    6.4162    0.1611    0.7562 C   0  0  0  0  0  0  0  0  0  0  0  0
    6.1830    1.1266   -0.3933 C   0  0  0  0  0  0  0  0  0  0  0  0
    4.8259    1.5234   -0.3343 O   0  0  0  0  0  0  0  0  0  0  0  0
    3.8205    0.5703   -0.4393 C   0  0  0  0  0  0  0  0  0  0  0  0
    4.2034   -0.6304   -0.5858 O   0  0  0  0  0  0  0  0  0  0  0  0
    2.3857    0.8955   -0.3882 C   0  0  0  0  0  0  0  0  0  0  0  0
    1.6305   -0.3258   -0.5274 N   0  0  0  0  0  0  0  0  0  0  0  0
    0.2270   -0.2825   -0.5102 C   0  0  0  0  0  0  0  0  0  0  0  0
   -0.3686    0.8225   -0.3733 O   0  0  0  0  0  0  0  0  0  0  0  0
   -0.5896   -1.4448   -0.6418 N   0  0  0  0  0  0  0  0  0  0  0  0
   -1.7442   -1.4737   -0.0531 C   0  0  0  0  0  0  0  0  0  0  0  0
   -2.7026   -2.5306   -0.0601 N   0  0  0  0  0  0  0  0  0  0  0  0
   -3.8392   -2.1629    0.7096 C   0  0  0  0  0  0  0  0  0  0  0  0
   -4.8331   -2.8757    0.9933 O   0  0  0  0  0  0  0  0  0  0  0  0
   -3.6182   -0.7687    1.1116 C   0  0  0  0  0  0  0  0  0  0  0  0
   -2.2856   -0.4706    0.7109 O   0  0  0  0  0  0  0  0  0  0  0  0
   -4.5093    0.1947    0.3258 C   0  0  0  0  0  0  0  0  0  0  0  0
   -4.2035    1.5848    0.8137 C   0  0  0  0  0  0  0  0  0  0  0  0
   -4.0539    0.0939   -1.1216 C   0  0  0  0  0  0  0  0  0  0  0  0
  1  2  1  0
  2  3  1  0
  3  4  1  0
  4  5  2  0
  4  6  1  0
  6  7  1  0
  7  8  1  0
  8  9  2  0
  8 10  1  0
 10 11  2  3
 11 12  1  0
 12 13  1  0
 13 14  2  0
 13 15  1  0
 15 16  1  0
 15 17  1  0
 17 18  1  0
 17 19  1  0
 16 11  1  0
M  END

