
     RDKit          3D

 20 22  0  0  0  0  0  0  0  0999 V2000
   -4.3685    0.8643   -1.0854 C   0  0  0  0  0  0  0  0  0  0  0  0
   -3.1480    0.7259   -0.2196 C   0  0  0  0  0  0  0  0  0  0  0  0
   -2.7567   -0.7372   -0.0664 C   0  0  0  0  0  0  0  0  0  0  0  0
   -1.3607   -0.8797    0.0313 N   0  0  0  0  0  0  0  0  0  0  0  0
   -0.5941   -0.0106   -0.4441 C   0  0  0  0  0  0  0  0  0  0  0  0
   -1.6423    1.2490   -1.1586 S   0  0  0  0  0  0  0  0  0  0  0  0
    0.8732    0.0069   -0.4364 C   0  0  0  0  0  0  0  0  0  0  0  0
    1.7302   -0.8648    0.0597 N   0  0  0  0  0  0  0  0  0  0  0  0
    3.0103   -0.6516   -0.0440 C   0  0  0  0  0  0  0  0  0  0  0  0
    3.4157    0.4922   -0.6769 C   0  0  0  0  0  0  0  0  0  0  0  0
    1.9173    1.2010   -1.0898 S   0  0  0  0  0  0  0  0  0  0  0  0
    4.7723    0.8120   -0.8392 C   0  0  0  0  0  0  0  0  0  0  0  0
    5.7765   -0.0284   -0.3587 C   0  0  0  0  0  0  0  0  0  0  0  0
    5.3343   -1.1623    0.2682 C   0  0  0  0  0  0  0  0  0  0  0  0
    4.0358   -1.4955    0.4386 C   0  0  0  0  0  0  0  0  0  0  0  0
    7.1000    0.2880   -0.5195 O   0  0  0  0  0  0  0  0  0  0  0  0
   -3.3774   -1.3282    1.1475 C   0  0  0  0  0  0  0  0  0  0  0  0
   -2.7115   -1.8501    2.0660 O   0  0  0  0  0  0  0  0  0  0  0  0
   -4.7526   -1.2927    1.2527 O   0  0  0  0  0  0  0  0  0  0  0  0
   -3.2450    1.4422    1.0832 C   0  0  0  0  0  0  0  0  0  0  0  0
  1  2  1  0
  2  3  1  0
  3  4  1  0
  4  5  2  0
  5  6  1  0
  5  7  1  0
  7  8  2  0
  8  9  1  0
  9 10  2  0
 10 11  1  0
 10 12  1  0
 12 13  2  0
 13 14  1  0
 14 15  2  0
 13 16  1  0
  3 17  1  0
 17 18  2  0
 17 19  1  0
  2 20  1  0
  6  2  1  0
 11  7  1  0
 15  9  1  0
M  END

