
     RDKit          3D

 13 14  0  0  0  0  0  0  0  0999 V2000
    1.3219    2.5425   -0.9541 O   0  0  0  0  0  0  0  0  0  0  0  0
    1.2216    1.4359   -0.4116 C   0  0  0  0  0  0  0  0  0  0  0  0
    2.3406    0.6633    0.2213 C   0  0  0  0  0  0  0  0  0  0  0  0
    1.8943   -0.7119   -0.0895 C   0  0  0  0  0  0  0  0  0  0  0  0
    2.6052   -1.7418   -0.3364 O   0  0  0  0  0  0  0  0  0  0  0  0
    0.4252   -0.6846   -0.0633 C   0  0  0  0  0  0  0  0  0  0  0  0
   -0.4725   -1.6561    0.1073 C   0  0  0  0  0  0  0  0  0  0  0  0
   -1.8734   -1.4843    0.1096 N   0  0  0  0  0  0  0  0  0  0  0  0
   -2.4765   -0.2544    0.4909 N   0  0  0  0  0  0  0  0  0  0  0  0
   -1.6492    1.0419   -0.2952 S   0  0  0  0  0  6  0  0  0  0  0  0
   -1.9114    2.2837    0.5086 O   0  0  0  0  0  0  0  0  0  0  0  0
   -2.1319    1.1984   -1.7139 O   0  0  0  0  0  0  0  0  0  0  0  0
    0.0291    0.6465   -0.2644 N   0  0  0  0  0  0  0  0  0  0  0  0
  1  2  2  0
  2  3  1  0
  3  4  1  0
  4  5  2  0
  4  6  1  0
  6  7  2  0
  7  8  1  0
  8  9  1  0
  9 10  1  0
 10 11  2  0
 10 12  2  0
 10 13  1  0
 13  2  1  0
 13  6  1  0
M  END

