CCOC1=CC=C(C=C1)C2CC(=O)NC3=NNC(=C23)C
     RDKit          3D

 20 22  0  0  0  0  0  0  0  0999 V2000
    4.9290   -0.9680    0.2746 C   0  0  0  0  0  0  0  0  0  0  0  0
    4.6947    0.3851    0.8908 C   0  0  0  0  0  0  0  0  0  0  0  0
    3.7807    1.1129    0.1217 O   0  0  0  0  0  0  0  0  0  0  0  0
    2.4737    0.7447   -0.1190 C   0  0  0  0  0  0  0  0  0  0  0  0
    1.9078   -0.3999    0.3942 C   0  0  0  0  0  0  0  0  0  0  0  0
    0.5984   -0.7423    0.1341 C   0  0  0  0  0  0  0  0  0  0  0  0
   -0.2162    0.0434   -0.6541 C   0  0  0  0  0  0  0  0  0  0  0  0
    0.3516    1.1896   -1.1672 C   0  0  0  0  0  0  0  0  0  0  0  0
    1.6522    1.5448   -0.9185 C   0  0  0  0  0  0  0  0  0  0  0  0
   -1.6275   -0.3525   -0.9206 C   0  0  0  0  0  0  0  0  0  0  0  0
   -1.6766   -1.8327   -1.1642 C   0  0  0  0  0  0  0  0  0  0  0  0
   -2.0478   -2.6191    0.0065 C   0  0  0  0  0  0  0  0  0  0  0  0
   -1.5501   -3.7784    0.1450 O   0  0  0  0  0  0  0  0  0  0  0  0
   -2.9437   -2.1108    0.9748 N   0  0  0  0  0  0  0  0  0  0  0  0
   -3.1999   -0.7162    1.0142 C   0  0  0  0  0  0  0  0  0  0  0  0
   -3.9734    0.0814    1.7793 N   0  0  0  0  0  0  0  0  0  0  0  0
   -3.8771    1.3488    1.4220 N   0  0  0  0  0  0  0  0  0  0  0  0
   -3.0145    1.3757    0.3932 C   0  0  0  0  0  0  0  0  0  0  0  0
   -2.5724    0.0999    0.1133 C   0  0  0  0  0  0  0  0  0  0  0  0
   -2.6288    2.6279   -0.3056 C   0  0  0  0  0  0  0  0  0  0  0  0
  1  2  1  0
  2  3  1  0
  3  4  1  0
  4  5  2  0
  5  6  1  0
  6  7  2  0
  7  8  1  0
  8  9  2  0
  7 10  1  0
 10 11  1  0
 11 12  1  0
 12 13  2  0
 12 14  1  0
 14 15  1  0
 15 16  2  0
 16 17  1  0
 17 18  1  0
 18 19  2  0
 18 20  1  0
  9  4  1  0
 19 10  1  0
 19 15  1  0
M  END

