
     RDKit          3D

 11 10  0  0  0  0  0  0  0  0999 V2000
   -3.7130    0.7330    0.9756 C   0  0  0  0  0  0  0  0  0  0  0  0
   -2.5743    0.5659    0.0562 C   0  0  0  0  0  0  0  0  0  0  0  0
   -2.4831    1.2477   -0.9759 O   0  0  0  0  0  0  0  0  0  0  0  0
   -1.5834   -0.3853    0.3639 N   0  0  0  0  0  0  0  0  0  0  0  0
   -0.5105   -0.5180   -0.5422 N   0  0  0  0  0  0  0  0  0  0  0  0
    0.8361   -0.6026   -0.1238 C   0  0  0  0  0  0  0  0  0  0  0  0
    1.0607   -0.5602    1.1103 O   0  0  0  0  0  0  0  0  0  0  0  0
    1.8755   -0.7301   -1.1276 C   0  0  0  0  0  0  0  0  0  0  0  0
    3.0918   -0.8145   -0.8185 N   0  0  0  0  0  0  0  0  0  0  0  0
    3.5656   -0.7923    0.4886 N   0  0  0  0  0  0  0  0  0  0  0  0
    4.2081    0.2653    0.8670 C   0  0  0  0  0  0  0  0  0  0  0  0
  1  2  1  0
  2  3  2  0
  2  4  1  0
  4  5  1  0
  5  6  1  0
  6  7  2  0
  6  8  1  0
  8  9  2  3
  9 10  1  0
 10 11  2  0
M  END

