CC(C)CC(CC(=O)NC)N
     RDKit          3D

 11 10  0  0  0  0  0  0  0  0999 V2000
   -2.2992    0.0556    1.6301 C   0  0  0  0  0  0  0  0  0  0  0  0
   -2.2179   -0.3772    0.2000 C   0  0  0  0  0  0  0  0  0  0  0  0
   -3.6269   -0.5201   -0.3396 C   0  0  0  0  0  0  0  0  0  0  0  0
   -1.4881    0.5762   -0.6875 C   0  0  0  0  0  0  0  0  0  0  0  0
   -0.0805    0.8341   -0.3219 C   0  0  0  0  0  0  0  0  0  0  0  0
    0.7995   -0.3862   -0.3226 C   0  0  0  0  0  0  0  0  0  0  0  0
    2.1797    0.0052    0.0594 C   0  0  0  0  0  0  0  0  0  0  0  0
    2.4533    1.2044    0.3229 O   0  0  0  0  0  0  0  0  0  0  0  0
    3.2399   -0.9428    0.1438 N   0  0  0  0  0  0  0  0  0  0  0  0
    4.5765   -0.6051    0.5068 C   0  0  0  0  0  0  0  0  0  0  0  0
    0.4884    1.8115   -1.2214 N   0  0  0  0  0  0  0  0  0  0  0  0
  1  2  1  0
  2  3  1  0
  2  4  1  0
  4  5  1  0
  5  6  1  0
  6  7  1  0
  7  8  2  0
  7  9  1  0
  9 10  1  0
  5 11  1  0
M  END

