
     RDKit          3D

  8  8  0  0  0  0  0  0  0  0999 V2000
   -1.4184    0.9525    0.1374 C   0  0  0  0  0  0  0  0  0  0  0  0
   -1.4630   -0.4048   -0.0824 C   0  0  0  0  0  0  0  0  0  0  0  0
   -0.2214   -0.8946   -0.1471 N   0  0  0  0  0  0  0  0  0  0  0  0
    0.6199    0.1366    0.0293 C   0  0  0  0  0  0  0  0  0  0  0  0
   -0.1178    1.2711    0.2040 N   0  0  0  0  0  0  0  0  0  0  0  0
    2.0770    0.0604    0.0339 C   0  0  0  0  0  0  0  0  0  0  0  0
    2.7201    1.1255    0.2134 O   0  0  0  0  0  0  0  0  0  0  0  0
   -2.6120   -1.1454   -0.2154 F   0  0  0  0  0  0  0  0  0  0  0  0
  1  2  2  0
  2  3  1  0
  3  4  1  0
  4  5  2  0
  4  6  1  0
  6  7  2  0
  2  8  1  0
  5  1  1  0
M  END

