
     RDKit          3D

 12 13  0  0  0  0  0  0  0  0999 V2000
   -1.0497    1.1285   -0.0207 C   0  0  0  0  0  0  0  0  0  0  0  0
   -2.1923    0.3752   -0.0238 C   0  0  0  0  0  0  0  0  0  0  0  0
   -2.0317   -0.9961   -0.0089 C   0  0  0  0  0  0  0  0  0  0  0  0
   -0.8185   -1.5642    0.0078 N   0  0  0  0  0  0  0  0  0  0  0  0
    0.3186   -0.8030    0.0108 C   0  0  0  0  0  0  0  0  0  0  0  0
    0.2300    0.5657   -0.0034 C   0  0  0  0  0  0  0  0  0  0  0  0
    1.5641    1.1492    0.0031 C   0  0  0  0  0  0  0  0  0  0  0  0
    1.8428    2.3764   -0.0063 O   0  0  0  0  0  0  0  0  0  0  0  0
    2.4854    0.0229    0.0226 C   0  0  0  0  0  0  0  0  0  0  0  0
    3.7662    0.0901    0.0337 O   0  0  0  0  0  0  0  0  0  0  0  0
    1.6927   -1.1482    0.0268 N   0  0  0  0  0  0  0  0  0  0  0  0
   -3.5822   -2.1097   -0.0123 Br  0  0  0  0  0  0  0  0  0  0  0  0
  1  2  2  0
  2  3  1  0
  3  4  2  0
  4  5  1  0
  5  6  2  0
  6  7  1  0
  7  8  2  0
  7  9  1  0
  9 10  2  0
  9 11  1  0
  3 12  1  0
  6  1  1  0
 11  5  1  0
M  END

