C1=CC=[N+](C(=C1)C(=O)NO)[O-]
     RDKit          3D

 11 11  0  0  0  0  0  0  0  0999 V2000
   -2.0888   -0.7099   -1.0044 C   0  0  0  0  0  0  0  0  0  0  0  0
   -2.6930    0.1625   -0.1278 C   0  0  0  0  0  0  0  0  0  0  0  0
   -1.8581    0.8739    0.6980 C   0  0  0  0  0  0  0  0  0  0  0  0
   -0.4927    0.7354    0.6650 N   0  0  0  0  0  4  0  0  0  0  0  0
    0.1267   -0.1017   -0.1727 C   0  0  0  0  0  0  0  0  0  0  0  0
   -0.7174   -0.8307   -1.0181 C   0  0  0  0  0  0  0  0  0  0  0  0
    1.5470   -0.3003   -0.2649 C   0  0  0  0  0  0  0  0  0  0  0  0
    1.9514   -1.1532   -1.1376 O   0  0  0  0  0  0  0  0  0  0  0  0
    2.5533    0.3187    0.4775 N   0  0  0  0  0  0  0  0  0  0  0  0
    3.8603    0.0195    0.2689 O   0  0  0  0  0  0  0  0  0  0  0  0
    0.2615    1.4931    1.5332 O   0  0  0  0  0  1  0  0  0  0  0  0
  1  2  2  0
  2  3  1  0
  3  4  2  0
  4  5  1  0
  5  6  2  0
  5  7  1  0
  7  8  2  0
  7  9  1  0
  9 10  1  0
  4 11  1  0
  6  1  1  0
M  CHG  2   4   1  11  -1
M  END

