
     RDKit          3D

 12 13  0  0  0  0  0  0  0  0999 V2000
   -3.4839    0.2219    0.0310 C   0  0  0  0  0  0  0  0  0  0  0  0
   -2.9042   -1.0252    0.0391 C   0  0  0  0  0  0  0  0  0  0  0  0
   -1.5206   -1.2050    0.0298 C   0  0  0  0  0  0  0  0  0  0  0  0
   -0.7359   -2.2982    0.0347 N   0  0  0  0  0  0  0  0  0  0  0  0
    0.5463   -1.8943    0.0202 C   0  0  0  0  0  0  0  0  0  0  0  0
    0.5045   -0.5171    0.0064 C   0  0  0  0  0  0  0  0  0  0  0  0
   -0.7730   -0.0906    0.0123 N   0  0  0  0  0  0  0  0  0  0  0  0
   -1.3256    1.1487    0.0041 C   0  0  0  0  0  0  0  0  0  0  0  0
   -2.6916    1.3467    0.0131 C   0  0  0  0  0  0  0  0  0  0  0  0
    1.6534    0.4275   -0.0126 C   0  0  0  0  0  0  0  0  0  0  0  0
    2.9204   -0.2671   -0.0156 N   0  0  0  0  0  0  0  0  0  0  0  0
    3.9785    0.6141   -0.0322 N   0  0  0  0  0  0  0  0  0  0  0  0
  1  2  2  0
  2  3  1  0
  3  4  2  0
  4  5  1  0
  5  6  2  0
  6  7  1  0
  7  8  1  0
  8  9  2  0
  6 10  1  0
 10 11  1  0
 11 12  1  0
  9  1  1  0
  7  3  1  0
M  END

