
     RDKit          3D

 25 27  0  0  0  0  0  0  0  0999 V2000
    1.4865   -0.9884   -1.6744 C   0  0  0  0  0  0  0  0  0  0  0  0
    0.3977   -1.0374   -0.6376 C   0  0  0  0  0  0  0  0  0  0  0  0
    0.4822   -1.6624    0.5874 C   0  0  0  0  0  0  0  0  0  0  0  0
   -0.7392   -1.4404    1.1755 C   0  0  0  0  0  0  0  0  0  0  0  0
   -1.0619   -1.8553    2.3139 O   0  0  0  0  0  0  0  0  0  0  0  0
   -1.5406   -0.7185    0.3651 N   0  0  0  0  0  0  0  0  0  0  0  0
   -0.8312   -0.4877   -0.7235 N   0  0  0  0  0  0  0  0  0  0  0  0
   -1.2600    0.2525   -1.8929 C   0  0  0  0  0  0  0  0  0  0  0  0
   -2.9200   -0.2699    0.6174 C   0  0  0  0  0  0  0  0  0  0  0  0
   -3.9079   -1.1549   -0.0932 C   0  0  0  0  0  0  0  0  0  0  0  0
   -5.2592   -0.5044   -0.1994 C   0  0  0  0  0  0  0  0  0  0  0  0
   -5.0898    0.7251   -1.0241 C   0  0  0  0  0  0  0  0  0  0  0  0
   -4.2206    1.7130   -0.3127 C   0  0  0  0  0  0  0  0  0  0  0  0
   -3.0968    1.1867    0.4663 C   0  0  0  0  0  0  0  0  0  0  0  0
    1.6096   -2.3804    1.1094 N   0  0  0  0  0  0  0  0  0  0  0  0
    2.8379   -1.6422    2.0273 S   0  0  0  0  0  6  0  0  0  0  0  0
    2.2270   -1.0589    3.2925 O   0  0  0  0  0  0  0  0  0  0  0  0
    3.8053   -2.6927    2.4786 O   0  0  0  0  0  0  0  0  0  0  0  0
    3.6921   -0.3992    1.1426 C   0  0  0  0  0  0  0  0  0  0  0  0
    3.2734    0.9152    1.1635 C   0  0  0  0  0  0  0  0  0  0  0  0
    3.9345    1.9076    0.4723 C   0  0  0  0  0  0  0  0  0  0  0  0
    5.0556    1.6229   -0.2776 C   0  0  0  0  0  0  0  0  0  0  0  0
    5.4886    0.3139   -0.3100 C   0  0  0  0  0  0  0  0  0  0  0  0
    4.8160   -0.6795    0.3898 C   0  0  0  0  0  0  0  0  0  0  0  0
    5.7498    2.6493   -1.0000 N   0  0  0  0  0  0  0  0  0  0  0  0
  1  2  1  0
  2  3  2  0
  3  4  1  0
  4  5  2  0
  4  6  1  0
  6  7  1  0
  7  8  1  0
  6  9  1  0
  9 10  1  0
 10 11  1  0
 11 12  1  0
 12 13  1  0
 13 14  1  0
  3 15  1  0
 15 16  1  0
 16 17  2  0
 16 18  2  0
 16 19  1  0
 19 20  2  0
 20 21  1  0
 21 22  2  0
 22 23  1  0
 23 24  2  0
 22 25  1  0
  7  2  1  0
 14  9  1  0
 24 19  1  0
M  END

