
     RDKit          3D

 11 10  0  0  0  0  0  0  0  0999 V2000
    4.0022    0.7714    0.7155 N   0  0  0  0  0  0  0  0  0  0  0  0
    2.8939    0.5099   -0.1284 C   0  0  0  0  0  0  0  0  0  0  0  0
    2.7309    1.2086   -1.1865 O   0  0  0  0  0  0  0  0  0  0  0  0
    1.9516   -0.4603    0.1017 O   0  0  0  0  0  0  0  0  0  0  0  0
    0.8803   -0.7046   -0.7233 N   0  0  0  0  0  0  0  0  0  0  0  0
   -0.4650   -0.6350   -0.3085 C   0  0  0  0  0  0  0  0  0  0  0  0
   -0.7249   -0.3369    0.8724 O   0  0  0  0  0  0  0  0  0  0  0  0
   -1.5463   -0.9041   -1.2320 C   0  0  0  0  0  0  0  0  0  0  0  0
   -2.7897   -0.8585   -0.9279 N   0  0  0  0  0  0  0  0  0  0  0  0
   -3.1712   -0.5351    0.3563 N   0  0  0  0  0  0  0  0  0  0  0  0
   -3.8902    0.4884    0.6414 C   0  0  0  0  0  0  0  0  0  0  0  0
  1  2  1  0
  2  3  2  0
  2  4  1  0
  4  5  1  0
  5  6  1  0
  6  7  2  0
  6  8  1  0
  8  9  2  3
  9 10  1  0
 10 11  2  0
M  END

