
     RDKit          3D

 23 25  0  0  0  0  0  0  0  0999 V2000
    7.2837   -0.8116   -0.5606 C   0  0  0  0  0  0  0  0  0  0  0  0
    5.8305   -0.8148   -0.7997 C   0  0  0  0  0  0  0  0  0  0  0  0
    5.3697   -1.0994   -1.9262 O   0  0  0  0  0  0  0  0  0  0  0  0
    4.9291   -0.5052    0.2070 O   0  0  0  0  0  0  0  0  0  0  0  0
    3.5262   -0.5029   -0.0040 C   0  0  0  0  0  0  0  0  0  0  0  0
    3.0353    0.8982    0.2397 C   0  0  0  0  0  0  0  0  0  0  0  0
    1.7838    0.7996    1.0854 C   0  0  0  0  0  0  0  0  0  0  0  0
    0.8872   -0.2216    0.4184 C   0  0  0  0  0  0  0  0  0  0  0  0
    1.4223   -1.5755    0.8356 C   0  0  0  0  0  0  0  0  0  0  0  0
    2.9337   -1.4933    0.9738 C   0  0  0  0  0  0  0  0  0  0  0  0
   -0.7425    0.0882    0.8288 S   0  0  0  0  0  3  0  0  0  0  0  0
   -1.9728   -0.9299    0.2073 C   0  0  0  0  0  0  0  0  0  0  0  0
   -1.7753   -2.3752    0.6501 C   0  0  0  0  0  0  0  0  0  0  0  0
   -3.1265   -3.0443    0.4984 C   0  0  0  0  0  0  0  0  0  0  0  0
   -3.6618   -2.9467   -0.9011 C   0  0  0  0  0  0  0  0  0  0  0  0
   -3.4900   -1.6265   -1.5468 C   0  0  0  0  0  0  0  0  0  0  0  0
   -2.1324   -0.9848   -1.2836 C   0  0  0  0  0  0  0  0  0  0  0  0
   -1.1270    1.7947    0.9621 C   0  0  0  0  0  0  0  0  0  0  0  0
   -2.5624    2.0525    1.3226 C   0  0  0  0  0  0  0  0  0  0  0  0
   -3.4219    2.5853    0.2415 C   0  0  0  0  0  0  0  0  0  0  0  0
   -2.7130    3.7737   -0.4154 C   0  0  0  0  0  0  0  0  0  0  0  0
   -1.5392    3.1568   -1.1399 C   0  0  0  0  0  0  0  0  0  0  0  0
   -0.5799    2.6032   -0.1594 C   0  0  0  0  0  0  0  0  0  0  0  0
  1  2  1  0
  2  3  2  0
  2  4  1  0
  4  5  1  0
  5  6  1  0
  6  7  1  0
  7  8  1  0
  8  9  1  0
  9 10  1  0
  8 11  1  0
 11 12  1  0
 12 13  1  0
 13 14  1  0
 14 15  1  0
 15 16  1  0
 16 17  1  0
 11 18  1  0
 18 19  1  0
 19 20  1  0
 20 21  1  0
 21 22  1  0
 22 23  1  0
 10  5  1  0
 17 12  1  0
 23 18  1  0
M  CHG  1  11   1
M  END

