
     RDKit          3D

 12 13  0  0  0  0  0  0  0  0999 V2000
   -3.1685    0.9427    0.3529 C   0  0  0  0  0  0  0  0  0  0  0  0
   -2.6397   -0.3522    0.3675 O   0  0  0  0  0  0  0  0  0  0  0  0
   -1.2820   -0.6019    0.2930 C   0  0  0  0  0  0  0  0  0  0  0  0
   -0.4436    0.4858    0.2018 C   0  0  0  0  0  0  0  0  0  0  0  0
    0.9310    0.2340    0.1263 C   0  0  0  0  0  0  0  0  0  0  0  0
    1.4439   -1.0445    0.1413 C   0  0  0  0  0  0  0  0  0  0  0  0
    2.8030   -0.9689    0.0549 N   0  0  0  0  0  0  0  0  0  0  0  0
    3.1044    0.2947   -0.0096 N   0  0  0  0  0  0  0  0  0  0  0  0
    2.0257    1.0809    0.0281 C   0  0  0  0  0  0  0  0  0  0  0  0
    1.9788    2.3411   -0.0148 O   0  0  0  0  0  0  0  0  0  0  0  0
    0.5948   -2.0908    0.2316 N   0  0  0  0  0  0  0  0  0  0  0  0
   -0.7171   -1.8548    0.3038 C   0  0  0  0  0  0  0  0  0  0  0  0
  1  2  1  0
  2  3  1  0
  3  4  2  0
  4  5  1  0
  5  6  2  0
  6  7  1  0
  7  8  1  0
  8  9  1  0
  9 10  2  0
  6 11  1  0
 11 12  2  0
 12  3  1  0
  9  5  1  0
M  END

