
     RDKit          3D

 24 24  0  0  0  0  0  0  0  0999 V2000
    6.9031    1.5414   -0.2597 C   0  0  0  0  0  0  0  0  0  0  0  0
    7.8899    0.4899    0.0381 C   0  0  0  0  0  0  0  0  0  0  0  0
    9.1836    0.8048    0.2489 C   0  0  0  0  0  0  0  0  0  0  0  0
   10.1079   -0.1663    0.4958 C   0  0  0  0  0  0  0  0  0  0  0  0
    9.7286   -1.4687    0.5296 C   0  0  0  0  0  0  0  0  0  0  0  0
    8.3856   -1.7824    0.3084 C   0  0  0  0  0  0  0  0  0  0  0  0
    7.4171   -0.8527    0.0590 C   0  0  0  0  0  0  0  0  0  0  0  0
    6.0587   -1.0233   -0.0836 N   0  0  0  0  0  0  0  0  0  0  0  0
    4.7584   -1.1869   -0.2202 C   0  0  0  0  0  0  0  0  0  0  0  0
    4.0711   -2.2676   -0.4533 O   0  0  0  0  0  0  0  0  0  0  0  0
    3.8475   -0.0820   -0.1157 O   0  0  0  0  0  0  0  0  0  0  0  0
    2.4708   -0.1757   -0.2431 C   0  0  0  0  0  0  0  0  0  0  0  0
    1.8477   -1.0675    0.7958 C   0  0  0  0  0  0  0  0  0  0  0  0
    0.3471   -1.1013    0.6089 C   0  0  0  0  0  0  0  0  0  0  0  0
   -0.2417    0.2381    0.8327 C   0  0  0  0  0  0  0  0  0  0  0  0
   -1.7560    0.2878    0.6772 C   0  0  0  0  0  0  0  0  0  0  0  0
   -2.1841   -0.0722   -0.7066 C   0  0  0  0  0  0  0  0  0  0  0  0
   -3.6849   -0.0408   -0.8738 C   0  0  0  0  0  0  0  0  0  0  0  0
   -4.2008    1.3278   -0.5427 C   0  0  0  0  0  0  0  0  0  0  0  0
   -5.6998    1.4463   -0.6966 C   0  0  0  0  0  0  0  0  0  0  0  0
   -6.4394    0.4558    0.1811 C   0  0  0  0  0  0  0  0  0  0  0  0
   -7.9229    0.6435   -0.0228 C   0  0  0  0  0  0  0  0  0  0  0  0
   -8.6769   -0.3471    0.8332 C   0  0  0  0  0  0  0  0  0  0  0  0
   -8.3665    0.5017   -1.4496 C   0  0  0  0  0  0  0  0  0  0  0  0
  1  2  1  0
  2  3  2  0
  3  4  1  0
  4  5  2  0
  5  6  1  0
  6  7  2  0
  7  8  1  0
  8  9  1  0
  9 10  2  0
  9 11  1  0
 11 12  1  0
 12 13  1  0
 13 14  1  0
 14 15  1  0
 15 16  1  0
 16 17  1  0
 17 18  1  0
 18 19  1  0
 19 20  1  0
 20 21  1  0
 21 22  1  0
 22 23  1  0
 22 24  1  0
  7  2  1  0
M  END

