
     RDKit          3D

 17 16  0  0  0  0  0  0  0  0999 V2000
   -0.8569   -1.8827   -1.2106 C   0  0  0  0  0  0  0  0  0  0  0  0
   -0.4502   -0.4177   -1.0391 C   0  0  0  0  0  0  0  0  0  0  0  0
   -1.1544    0.2511    0.0769 C   0  0  0  0  0  0  0  0  0  0  0  0
   -2.6205    0.3673    0.0895 C   0  0  0  0  0  0  0  0  0  0  0  0
   -2.9543    1.1283    1.4028 C   0  0  0  0  0  0  0  0  0  0  0  0
   -3.0073    1.3573   -1.0000 C   0  0  0  0  0  0  0  0  0  0  0  0
   -2.4125    2.6629   -0.7658 N   0  0  0  0  0  1  0  0  0  0  0  0
   -3.4513   -0.8485    0.1205 C   0  0  0  0  0  0  0  0  0  0  0  0
   -4.9618   -0.5217    0.1357 C   0  0  0  0  0  0  0  0  0  0  0  0
   -3.3054   -1.5805    1.3214 O   0  0  0  0  0  0  0  0  0  0  0  0
    1.0214   -0.4689   -0.6747 C   0  0  0  0  0  0  0  0  0  0  0  0
    1.6948    0.8254   -0.4537 C   0  0  0  0  0  0  0  0  0  0  0  0
    3.0957    0.6366   -0.1270 N   0  0  0  0  0  0  0  0  0  0  0  0
    3.8181    0.1311   -1.2356 C   0  0  0  0  0  0  0  0  0  0  0  0
    3.3310    0.0562    1.1435 C   0  0  0  0  0  0  0  0  0  0  0  0
    4.7860   -0.1546    1.4642 C   0  0  0  0  0  0  0  0  0  0  0  0
    5.5274    1.0930    1.4515 N   0  0  0  0  0  0  0  0  0  0  0  0
  1  2  1  0
  2  3  1  0
  3  4  1  0
  4  5  1  0
  4  6  1  0
  6  7  1  0
  4  8  1  0
  8  9  1  0
  8 10  1  0
  2 11  1  0
 11 12  1  0
 12 13  1  0
 13 14  1  0
 13 15  1  0
 15 16  1  0
 16 17  1  0
M  RAD  1   7   3
M  END

