
     RDKit          3D

 13 14  0  0  0  0  0  0  0  0999 V2000
    2.7348   -0.6283   -0.1355 C   0  0  0  0  0  0  0  0  0  0  0  0
    2.2897    0.6569    0.0886 C   0  0  0  0  0  0  0  0  0  0  0  0
    0.9611    0.8647    0.1348 N   0  0  0  0  0  0  0  0  0  0  0  0
    0.0809   -0.1429   -0.0311 C   0  0  0  0  0  0  0  0  0  0  0  0
   -1.2110    0.3357    0.0613 C   0  0  0  0  0  0  0  0  0  0  0  0
   -1.0704    1.6920    0.2929 C   0  0  0  0  0  0  0  0  0  0  0  0
    0.2548    1.9689    0.3299 N   0  0  0  0  0  0  0  0  0  0  0  0
   -2.4833   -0.4335   -0.0605 C   0  0  0  0  0  0  0  0  0  0  0  0
   -2.6007   -1.0464   -1.2795 F   0  0  0  0  0  0  0  0  0  0  0  0
   -2.5684   -1.4132    0.9260 F   0  0  0  0  0  0  0  0  0  0  0  0
   -3.5422    0.4263    0.1568 F   0  0  0  0  0  0  0  0  0  0  0  0
    0.5388   -1.4174   -0.2534 C   0  0  0  0  0  0  0  0  0  0  0  0
    1.8628   -1.6350   -0.3013 N   0  0  0  0  0  0  0  0  0  0  0  0
  1  2  2  0
  2  3  1  0
  3  4  1  0
  4  5  2  0
  5  6  1  0
  6  7  2  0
  5  8  1  0
  8  9  1  0
  8 10  1  0
  8 11  1  0
  4 12  1  0
 12 13  2  0
 13  1  1  0
  7  3  1  0
M  END

