NC(=N)ONC(=O)C=CC#N
     RDKit          3D

 11 10  0  0  0  0  0  0  0  0999 V2000
   -3.6755   -0.1878   -0.0662 N   0  0  0  0  0  0  0  0  0  0  0  0
   -2.2689   -0.3192   -0.1254 C   0  0  0  0  0  0  0  0  0  0  0  0
   -1.7452   -1.2185   -0.9097 N   0  0  0  0  0  0  0  0  0  0  0  0
   -1.4458    0.4962    0.6392 O   0  0  0  0  0  0  0  0  0  0  0  0
   -0.2988    0.9788    0.0647 N   0  0  0  0  0  0  0  0  0  0  0  0
    0.9261    0.3108    0.2368 C   0  0  0  0  0  0  0  0  0  0  0  0
    0.9723   -0.7407    0.9273 O   0  0  0  0  0  0  0  0  0  0  0  0
    2.1017    0.8772   -0.4027 C   0  0  0  0  0  0  0  0  0  0  0  0
    3.2820    0.2964   -0.2757 C   0  0  0  0  0  0  0  0  0  0  0  0
    3.5026   -0.9038    0.4771 C   0  0  0  0  0  0  0  0  0  0  0  0
    3.6988   -1.8801    1.0732 N   0  0  0  0  0  0  0  0  0  0  0  0
  1  2  1  0
  2  3  2  0
  2  4  1  0
  4  5  1  0
  5  6  1  0
  6  7  2  0
  6  8  1  0
  8  9  2  3
  9 10  1  0
 10 11  3  0
M  END

