
     RDKit          3D

 10  9  0  0  0  0  0  0  0  0999 V2000
    1.7631   -1.5838    0.1752 C   0  0  0  0  0  0  0  0  0  0  0  0
    0.7613   -0.6588   -0.1206 O   0  0  0  0  0  0  0  0  0  0  0  0
    0.9782    0.6200   -0.5563 C   0  0  0  0  0  0  0  0  0  0  0  0
    0.0246    1.5132   -0.6003 C   0  0  0  0  0  0  0  0  0  0  0  0
   -1.3200    1.2788   -0.2126 C   0  0  0  0  0  0  0  0  0  0  0  0
   -2.1443    2.2573   -0.3172 O   0  0  0  0  0  0  0  0  0  0  0  0
   -1.8665    0.0341    0.2962 C   0  0  0  0  0  0  0  0  0  0  0  0
   -1.1339   -0.4760    1.8221 Cl  0  0  0  0  0  0  0  0  0  0  0  0
   -3.6309    0.2465    0.6961 Cl  0  0  0  0  0  0  0  0  0  0  0  0
   -1.7860   -1.2362   -0.9498 Cl  0  0  0  0  0  0  0  0  0  0  0  0
  1  2  1  0
  2  3  1  0
  3  4  2  0
  4  5  1  0
  5  6  2  0
  5  7  1  0
  7  8  1  0
  7  9  1  0
  7 10  1  0
M  END

