
     RDKit          3D

 12 12  0  0  0  0  0  0  0  0999 V2000
   -0.6364   -0.9922    0.1816 C   0  0  0  0  0  0  0  0  0  0  0  0
   -1.8109   -1.2967    0.8704 C   0  0  0  0  0  0  0  0  0  0  0  0
   -2.6622   -0.3450    1.2818 N   0  0  0  0  0  0  0  0  0  0  0  0
   -2.3624    0.9381    1.0156 C   0  0  0  0  0  0  0  0  0  0  0  0
   -1.2144    1.2863    0.3388 C   0  0  0  0  0  0  0  0  0  0  0  0
   -0.3114    0.3159   -0.1002 C   0  0  0  0  0  0  0  0  0  0  0  0
    0.8296    0.7105   -0.7739 O   0  0  0  0  0  0  0  0  0  0  0  0
    1.7652   -0.2496   -1.2023 C   0  0  0  0  0  0  0  0  0  0  0  0
    2.3105   -0.9389   -0.0169 C   0  0  0  0  0  0  0  0  0  0  0  0
    3.1212   -1.8928   -0.1015 O   0  0  0  0  0  0  0  0  0  0  0  0
    1.9203   -0.5230    1.2404 O   0  0  0  0  0  0  0  0  0  0  0  0
   -0.8981    2.6077    0.0603 O   0  0  0  0  0  0  0  0  0  0  0  0
  1  2  2  0
  2  3  1  0
  3  4  2  0
  4  5  1  0
  5  6  2  0
  6  7  1  0
  7  8  1  0
  8  9  1  0
  9 10  2  0
  9 11  1  0
  5 12  1  0
  6  1  1  0
M  END

