
     RDKit          3D

 14 13  0  0  0  0  0  0  0  0999 V2000
    3.9628    0.4937   -0.6449 C   0  0  0  0  0  0  0  0  0  0  0  0
    2.9283   -0.5976   -0.7111 C   0  0  0  0  0  0  0  0  0  0  0  0
    2.9292   -1.4192    0.3934 O   0  0  0  0  0  0  0  0  0  0  0  0
    1.5976    0.0169   -0.8714 C   0  0  0  0  0  0  0  0  0  0  0  0
    1.3846    0.7907   -1.8053 O   0  0  0  0  0  0  0  0  0  0  0  0
    0.5094   -0.2923    0.0893 C   0  0  0  0  0  0  0  0  0  0  0  0
   -0.6244    0.3869   -0.2567 O   0  0  0  0  0  0  0  0  0  0  0  0
   -1.7175    0.2019    0.5429 C   0  0  0  0  0  0  0  0  0  0  0  0
   -2.1782   -1.2507    0.6048 C   0  0  0  0  0  0  0  0  0  0  0  0
   -3.2927   -1.3662    1.4325 O   0  0  0  0  0  0  0  0  0  0  0  0
   -2.8139    1.0751    0.0406 C   0  0  0  0  0  0  0  0  0  0  0  0
   -2.8027    1.4813   -1.2263 C   0  0  0  0  0  0  0  0  0  0  0  0
   -1.4455    0.5928    1.9472 C   0  0  0  0  0  0  0  0  0  0  0  0
   -1.2168    0.8897    3.0391 N   0  0  0  0  0  0  0  0  0  0  0  0
  1  2  1  0
  2  3  1  0
  2  4  1  0
  4  5  2  0
  4  6  1  0
  6  7  1  0
  7  8  1  0
  8  9  1  0
  9 10  1  0
  8 11  1  0
 11 12  2  0
  8 13  1  0
 13 14  3  0
M  END

