CC(NC(=O)C#C)c1nccs1
     RDKit          3D

 12 12  0  0  0  0  0  0  0  0999 V2000
   -0.5657   -1.9840    0.9735 C   0  0  0  0  0  0  0  0  0  0  0  0
   -0.1662   -0.5429    0.8616 C   0  0  0  0  0  0  0  0  0  0  0  0
    1.1698   -0.3641    0.3650 N   0  0  0  0  0  0  0  0  0  0  0  0
    2.1965    0.3023    1.0623 C   0  0  0  0  0  0  0  0  0  0  0  0
    1.9556    0.7785    2.1887 O   0  0  0  0  0  0  0  0  0  0  0  0
    3.5012    0.4475    0.5172 C   0  0  0  0  0  0  0  0  0  0  0  0
    4.6016    0.5721    0.0364 C   0  0  0  0  0  0  0  0  0  0  0  0
   -1.1741    0.1909    0.0271 C   0  0  0  0  0  0  0  0  0  0  0  0
   -2.1909    0.9472    0.4138 N   0  0  0  0  0  0  0  0  0  0  0  0
   -2.9555    1.5007   -0.4699 C   0  0  0  0  0  0  0  0  0  0  0  0
   -2.6739    1.2757   -1.7930 C   0  0  0  0  0  0  0  0  0  0  0  0
   -1.2995    0.2618   -1.6751 S   0  0  0  0  0  0  0  0  0  0  0  0
  1  2  1  0
  2  3  1  0
  3  4  1  0
  4  5  2  0
  4  6  1  0
  6  7  3  0
  2  8  1  0
  8  9  2  0
  9 10  1  0
 10 11  2  0
 11 12  1  0
 12  8  1  0
M  END

