
     RDKit          3D

 15 15  0  0  0  0  0  0  0  0999 V2000
   -0.7792   -2.1979    0.4374 C   0  0  0  0  0  0  0  0  0  0  0  0
   -0.8073   -0.6871    0.5351 C   0  0  0  0  0  0  0  0  0  0  0  0
   -1.7829   -0.2026   -0.4092 N   0  0  0  0  0  4  0  0  0  0  0  0
   -2.5362    0.9162    0.0885 C   0  0  0  0  0  0  0  0  0  0  0  0
   -3.9970    0.5364    0.2227 C   0  0  0  0  0  0  0  0  0  0  0  0
   -4.7680    1.5678    0.6951 O   0  0  0  0  0  0  0  0  0  0  0  0
    0.5474   -0.1097    0.3169 C   0  0  0  0  0  0  0  0  0  0  0  0
    1.6742   -0.8503    0.3358 N   0  0  0  0  0  0  0  0  0  0  0  0
    2.8934   -0.3046    0.1348 C   0  0  0  0  0  0  0  0  0  0  0  0
    4.1245   -1.1727    0.1651 C   0  0  0  0  0  0  0  0  0  0  0  0
    5.2349   -0.4009   -0.0627 O   0  0  0  0  0  0  0  0  0  0  0  0
    3.0238    1.0463   -0.0992 C   0  0  0  0  0  0  0  0  0  0  0  0
    1.8787    1.8090   -0.1201 C   0  0  0  0  0  0  0  0  0  0  0  0
    1.9861    3.0494   -0.3338 O   0  0  0  0  0  0  0  0  0  0  0  0
    0.7026    1.2048    0.0866 N   0  0  0  0  0  0  0  0  0  0  0  0
  1  2  1  0
  2  3  1  0
  3  4  1  0
  4  5  1  0
  5  6  1  0
  2  7  1  0
  7  8  2  0
  8  9  1  0
  9 10  1  0
 10 11  1  0
  9 12  2  0
 12 13  1  0
 13 14  2  0
 13 15  1  0
 15  7  1  0
M  CHG  1   3   1
M  END

