
     RDKit          3D

 14 13  0  0  0  0  0  0  0  0999 V2000
   -4.0714    1.4056    0.6732 C   0  0  0  0  0  0  0  0  0  0  0  0
   -3.6000    0.8542   -0.6778 C   0  0  0  0  0  0  0  0  0  0  0  0
   -4.7071    0.8085   -1.5151 O   0  0  0  0  0  0  0  0  0  0  0  0
   -3.0317   -0.5617   -0.4828 C   0  0  0  0  0  0  0  0  0  0  0  0
   -4.0864   -1.4267    0.1712 C   0  0  0  0  0  0  0  0  0  0  0  0
   -1.9400   -0.5046    0.3730 O   0  0  0  0  0  0  0  0  0  0  0  0
   -0.7622   -0.9077   -0.2574 C   0  0  0  0  0  0  0  0  0  0  0  0
    0.3820   -0.8459    0.7413 C   0  0  0  0  0  0  0  0  0  0  0  0
    1.6271   -1.2383    0.1641 N   0  0  0  0  0  0  0  0  0  0  0  0
    2.1840   -0.2986   -0.7537 C   0  0  0  0  0  0  0  0  0  0  0  0
    2.7383    0.9398   -0.0724 C   0  0  0  0  0  0  0  0  0  0  0  0
    3.7544    0.6301    0.8209 O   0  0  0  0  0  0  0  0  0  0  0  0
    4.8446    0.0245    0.2867 C   0  0  0  0  0  0  0  0  0  0  0  0
    5.5865    0.8039   -0.7594 C   0  0  0  0  0  0  0  0  0  0  0  0
  1  2  1  0
  2  3  1  0
  2  4  1  0
  4  5  1  0
  4  6  1  0
  6  7  1  0
  7  8  1  0
  8  9  1  0
  9 10  1  0
 10 11  1  0
 11 12  1  0
 12 13  1  0
 13 14  1  0
M  END

