CN1C2=CC=CC(=C2C(=N1)C=O)N
     RDKit          3D

 13 14  0  0  0  0  0  0  0  0999 V2000
    2.6567   -1.6975    0.6923 C   0  0  0  0  0  0  0  0  0  0  0  0
    1.7133   -0.6293    0.4188 N   0  0  0  0  0  0  0  0  0  0  0  0
    0.3916   -0.7616    0.1371 C   0  0  0  0  0  0  0  0  0  0  0  0
   -0.3820   -1.8846    0.0374 C   0  0  0  0  0  0  0  0  0  0  0  0
   -1.7211   -1.7876   -0.2623 C   0  0  0  0  0  0  0  0  0  0  0  0
   -2.2696   -0.5427   -0.4602 C   0  0  0  0  0  0  0  0  0  0  0  0
   -1.5190    0.6342   -0.3689 C   0  0  0  0  0  0  0  0  0  0  0  0
   -0.1838    0.4943   -0.0673 C   0  0  0  0  0  0  0  0  0  0  0  0
    0.8480    1.3831    0.1036 C   0  0  0  0  0  0  0  0  0  0  0  0
    1.9826    0.6480    0.3983 N   0  0  0  0  0  0  0  0  0  0  0  0
    0.7952    2.8139    0.0029 C   0  0  0  0  0  0  0  0  0  0  0  0
   -0.2241    3.4493   -0.2603 O   0  0  0  0  0  0  0  0  0  0  0  0
   -2.1702    1.8734   -0.5889 N   0  0  0  0  0  0  0  0  0  0  0  0
  1  2  1  0
  2  3  1  0
  3  4  2  0
  4  5  1  0
  5  6  2  0
  6  7  1  0
  7  8  2  0
  8  9  1  0
  9 10  2  0
  9 11  1  0
 11 12  2  0
  7 13  1  0
 10  2  1  0
  8  3  1  0
M  END

