
     RDKit          3D

 13 12  0  0  0  0  0  0  0  0999 V2000
   -0.0920   -0.5767   -2.6143 C   0  0  0  0  0  0  0  0  0  0  0  0
   -0.6974   -0.6253   -1.2223 C   0  0  0  0  0  0  0  0  0  0  0  0
   -1.2190    0.6478   -0.8058 N   0  0  0  0  0  4  0  0  0  0  0  0
   -2.6081    0.7890   -0.6648 C   0  0  0  0  0  0  0  0  0  0  0  0
   -3.4621   -0.4140   -0.5849 C   0  0  0  0  0  0  0  0  0  0  0  0
   -3.2499   -1.3360    0.5353 C   0  0  0  0  0  0  0  0  0  0  0  0
   -2.4376   -1.2390    1.5450 C   0  0  0  0  0  0  0  0  0  0  0  0
    0.3890   -1.0711   -0.3201 C   0  0  0  0  0  0  0  0  0  0  0  0
    1.5775   -0.5111   -0.4017 C   0  0  0  0  0  0  0  0  0  0  0  0
    2.7258   -0.9031    0.4711 C   0  0  0  0  0  0  0  0  0  0  0  0
    3.1695    0.2740    1.2536 C   0  0  0  0  0  0  0  0  0  0  0  0
    2.2842    0.9935    2.1931 C   0  0  0  0  0  0  0  0  0  0  0  0
    4.4108    0.7101    1.1139 C   0  0  0  0  0  0  0  0  0  0  0  0
  1  2  1  0
  2  3  1  0
  3  4  1  0
  4  5  1  0
  5  6  1  0
  6  7  2  0
  2  8  1  0
  8  9  2  3
  9 10  1  0
 10 11  1  0
 11 12  1  0
 11 13  2  0
M  CHG  1   3   1
M  END

