
     RDKit          3D

 13 13  0  0  0  0  0  0  0  0999 V2000
    3.7944    1.0380    0.6058 C   0  0  0  0  0  0  0  0  0  0  0  0
    2.9298   -0.1122    0.0517 C   0  0  0  0  0  0  0  0  0  0  0  0
    1.9364    0.5056   -0.8318 C   0  0  0  0  0  0  0  0  0  0  0  0
    0.6526    0.4926   -0.7649 C   0  0  0  0  0  0  0  0  0  0  0  0
   -0.2599   -0.1406    0.2122 C   0  0  0  0  0  0  0  0  0  0  0  0
    0.0242   -0.0159    1.6475 C   0  0  0  0  0  0  0  0  0  0  0  0
    0.0937   -1.3625    1.8153 O   0  0  0  0  0  0  0  0  0  0  0  0
   -0.0193   -1.5864    0.4728 C   0  0  0  0  0  0  0  0  0  0  0  0
   -1.7116    0.0916   -0.1056 C   0  0  0  0  0  0  0  0  0  0  0  0
   -2.3227   -0.6534   -0.9922 C   0  0  0  0  0  0  0  0  0  0  0  0
   -3.7054   -0.4259   -1.2891 C   0  0  0  0  0  0  0  0  0  0  0  0
   -4.4017    0.6072   -0.6183 N   0  0  0  0  0  0  0  0  0  0  0  0
   -4.2880   -1.1390   -2.1369 O   0  0  0  0  0  0  0  0  0  0  0  0
  1  2  1  0
  2  3  1  0
  3  4  2  3
  4  5  1  0
  5  6  1  0
  6  7  1  0
  7  8  1  0
  5  9  1  0
  9 10  2  3
 10 11  1  0
 11 12  1  0
 11 13  2  0
  8  5  1  0
M  END

