
     RDKit          3D

 14 13  0  0  0  0  0  0  0  0999 V2000
   -4.4684   -2.0567    0.5105 C   0  0  0  0  0  0  0  0  0  0  0  0
   -4.6087   -0.6711   -0.0063 C   0  0  0  0  0  0  0  0  0  0  0  0
   -5.7208   -0.0865    0.5966 O   0  0  0  0  0  0  0  0  0  0  0  0
   -3.3982    0.1699    0.1696 C   0  0  0  0  0  0  0  0  0  0  0  0
   -3.5139    1.2122    0.7839 O   0  0  0  0  0  0  0  0  0  0  0  0
   -2.0674   -0.1888   -0.3583 C   0  0  0  0  0  0  0  0  0  0  0  0
   -1.0939    0.8861    0.0062 C   0  0  0  0  0  0  0  0  0  0  0  0
    0.3047    0.5997   -0.4974 C   0  0  0  0  0  0  0  0  0  0  0  0
    1.2482    1.7057   -0.1085 C   0  0  0  0  0  0  0  0  0  0  0  0
    2.6468    1.4805   -0.5809 C   0  0  0  0  0  0  0  0  0  0  0  0
    3.3042    0.2737   -0.0738 C   0  0  0  0  0  0  0  0  0  0  0  0
    2.7925   -0.5136    0.6941 O   0  0  0  0  0  0  0  0  0  0  0  0
    4.6919   -0.0224   -0.5193 C   0  0  0  0  0  0  0  0  0  0  0  0
    5.2308   -1.2867    0.0845 C   0  0  0  0  0  0  0  0  0  0  0  0
  1  2  1  0
  2  3  1  0
  2  4  1  0
  4  5  2  0
  4  6  1  0
  6  7  1  0
  7  8  1  0
  8  9  1  0
  9 10  1  0
 10 11  1  0
 11 12  2  0
 11 13  1  0
 13 14  1  0
M  END

