C1=CC=C(C=C1)C2=CN=C3N2C(=O)C4=C(N3)SC=C4C5=CC=CC=C5
     RDKit          3D

 25 29  0  0  0  0  0  0  0  0999 V2000
   -3.6915    2.7332    1.4285 C   0  0  0  0  0  0  0  0  0  0  0  0
   -2.6831    1.9090    1.8626 C   0  0  0  0  0  0  0  0  0  0  0  0
   -2.2774    0.8677    1.0350 C   0  0  0  0  0  0  0  0  0  0  0  0
   -2.7839    0.5775   -0.1855 C   0  0  0  0  0  0  0  0  0  0  0  0
   -3.8287    1.4549   -0.5973 C   0  0  0  0  0  0  0  0  0  0  0  0
   -4.2586    2.4875    0.1833 C   0  0  0  0  0  0  0  0  0  0  0  0
   -2.3574   -0.4057   -1.1629 C   0  0  0  0  0  0  0  0  0  0  0  0
   -3.2562   -0.9519   -2.1216 C   0  0  0  0  0  0  0  0  0  0  0  0
   -2.5600   -1.7653   -2.8996 N   0  0  0  0  0  0  0  0  0  0  0  0
   -1.2870   -1.7778   -2.5126 C   0  0  0  0  0  0  0  0  0  0  0  0
   -1.1591   -0.9411   -1.4467 N   0  0  0  0  0  0  0  0  0  0  0  0
    0.0535   -0.7767   -0.9168 C   0  0  0  0  0  0  0  0  0  0  0  0
    0.1718    0.0062    0.0499 O   0  0  0  0  0  0  0  0  0  0  0  0
    1.2131   -1.4207   -1.3842 C   0  0  0  0  0  0  0  0  0  0  0  0
    1.0095   -2.2466   -2.4513 C   0  0  0  0  0  0  0  0  0  0  0  0
   -0.2282   -2.4159   -3.0012 N   0  0  0  0  0  0  0  0  0  0  0  0
    2.5722   -2.8487   -2.7820 S   0  0  0  0  0  0  0  0  0  0  0  0
    3.4431   -2.0461   -1.5679 C   0  0  0  0  0  0  0  0  0  0  0  0
    2.4772   -1.3113   -0.9168 C   0  0  0  0  0  0  0  0  0  0  0  0
    2.8865   -0.4975    0.2699 C   0  0  0  0  0  0  0  0  0  0  0  0
    2.3361   -0.7513    1.4906 C   0  0  0  0  0  0  0  0  0  0  0  0
    2.7301    0.0425    2.5814 C   0  0  0  0  0  0  0  0  0  0  0  0
    3.6537    1.0556    2.4207 C   0  0  0  0  0  0  0  0  0  0  0  0
    4.2054    1.3060    1.1876 C   0  0  0  0  0  0  0  0  0  0  0  0
    3.8029    0.5102    0.1204 C   0  0  0  0  0  0  0  0  0  0  0  0
  1  2  2  0
  2  3  1  0
  3  4  2  0
  4  5  1  0
  5  6  2  0
  4  7  1  0
  7  8  2  0
  8  9  1  0
  9 10  2  0
 10 11  1  0
 11 12  1  0
 12 13  2  0
 12 14  1  0
 14 15  2  0
 15 16  1  0
 15 17  1  0
 17 18  1  0
 18 19  2  0
 19 20  1  0
 20 21  2  0
 21 22  1  0
 22 23  2  0
 23 24  1  0
 24 25  2  0
  6  1  1  0
 11  7  1  0
 16 10  1  0
 19 14  1  0
 25 20  1  0
M  END

