
     RDKit          3D

 11 11  0  0  0  0  0  0  0  0999 V2000
   -1.2954   -0.2942    1.3695 C   0  0  0  0  0  0  0  0  0  0  0  0
   -0.8783   -0.3693   -0.1026 C   0  0  0  0  0  0  0  0  0  0  0  0
   -1.3035   -1.6485   -0.5509 O   0  0  0  0  0  0  0  0  0  0  0  0
   -1.6565    0.6884   -0.8149 C   0  0  0  0  0  0  0  0  0  0  0  0
   -1.3835    2.0097   -0.2517 C   0  0  0  0  0  0  0  0  0  0  0  0
   -1.1758    3.0458    0.2088 N   0  0  0  0  0  0  0  0  0  0  0  0
    0.5774   -0.2593   -0.1880 C   0  0  0  0  0  0  0  0  0  0  0  0
    1.3810    0.5955   -0.9312 C   0  0  0  0  0  0  0  0  0  0  0  0
    2.7151    0.2695   -0.6665 C   0  0  0  0  0  0  0  0  0  0  0  0
    2.7132   -0.7467    0.2078 N   0  0  0  0  0  0  0  0  0  0  0  0
    1.4500   -1.0820    0.5098 C   0  0  0  0  0  0  0  0  0  0  0  0
  1  2  1  0
  2  3  1  0
  2  4  1  0
  4  5  1  0
  5  6  3  0
  2  7  1  0
  7  8  1  0
  8  9  2  0
  9 10  1  0
 10 11  1  0
 11  7  2  0
M  END

