
     RDKit          3D

 10  9  0  0  0  0  0  0  0  0999 V2000
   -0.4561   -2.0274   -0.7558 C   0  0  0  0  0  0  0  0  0  0  0  0
   -0.1416   -0.5105   -0.6031 C   0  0  0  0  0  0  0  0  0  0  0  0
    1.2561   -0.4101   -0.3952 N   0  0  0  0  0  0  0  0  0  0  0  0
    2.1738    0.5973   -0.6192 C   0  0  0  0  0  0  0  0  0  0  0  0
    3.5441    0.4193   -0.3032 N   0  0  0  0  0  0  0  0  0  0  0  0
    1.8312    1.7172   -1.1142 N   0  0  0  0  0  4  0  0  0  0  0  0
   -1.0442    0.0545    0.4404 C   0  0  0  0  0  0  0  0  0  0  0  0
   -0.8964   -0.5755    1.8001 C   0  0  0  0  0  0  0  0  0  0  0  0
   -1.0295    1.5447    0.5487 C   0  0  0  0  0  0  0  0  0  0  0  0
   -2.4214   -0.2881    0.0201 N   0  0  0  0  0  4  0  0  0  0  0  0
  1  2  1  0
  2  3  1  0
  3  4  1  0
  4  5  1  0
  4  6  2  0
  2  7  1  0
  7  8  1  0
  7  9  1  0
  7 10  1  0
M  CHG  2   6   1  10   1
M  END

