
     RDKit          3D

 11 11  0  0  0  0  0  0  0  0999 V2000
    0.1439   -1.5640   -1.2854 C   0  0  0  0  0  0  0  0  0  0  0  0
    0.2914   -0.6871   -0.0761 C   0  0  0  0  0  0  0  0  0  0  0  0
   -0.3738    0.5784   -0.2482 N   0  0  0  0  0  4  0  0  0  0  0  0
   -1.7641    0.4673   -0.5624 C   0  0  0  0  0  0  0  0  0  0  0  0
   -2.5264    0.2773    0.7398 C   0  0  0  0  0  0  0  0  0  0  0  0
   -3.9033    0.1624    0.4833 O   0  0  0  0  0  0  0  0  0  0  0  0
    1.7605   -0.3647    0.0945 C   0  0  0  0  0  0  0  0  0  0  0  0
    2.3100    0.6138    0.8789 C   0  0  0  0  0  0  0  0  0  0  0  0
    3.6480    0.7179    0.8750 C   0  0  0  0  0  0  0  0  0  0  0  0
    4.3210   -0.1456    0.1038 N   0  0  0  0  0  0  0  0  0  0  0  0
    3.1300   -1.0925   -0.6102 S   0  0  0  0  0  0  0  0  0  0  0  0
  1  2  1  0
  2  3  1  0
  3  4  1  0
  4  5  1  0
  5  6  1  0
  2  7  1  0
  7  8  2  0
  8  9  1  0
  9 10  2  0
 10 11  1  0
 11  7  1  0
M  CHG  1   3   1
M  END

