
     RDKit          3D

 10 10  0  0  0  0  0  0  0  0999 V2000
   -1.2343   -1.3183    0.0927 C   0  0  0  0  0  0  0  0  0  0  0  0
   -2.4090   -0.9731    0.7281 C   0  0  0  0  0  0  0  0  0  0  0  0
   -2.7465    0.3208    0.9662 N   0  0  0  0  0  0  0  0  0  0  0  0
   -1.9003    1.2928    0.5678 C   0  0  0  0  0  0  0  0  0  0  0  0
   -0.7190    0.9829   -0.0724 C   0  0  0  0  0  0  0  0  0  0  0  0
   -0.3786   -0.3255   -0.3141 C   0  0  0  0  0  0  0  0  0  0  0  0
    0.9230   -0.7131   -0.9748 C   0  0  0  0  0  0  0  0  0  0  0  0
    1.9005    0.2448   -0.4331 N   0  0  0  0  0  0  0  0  0  0  0  0
    2.8460   -0.4036    0.4295 N   0  0  0  0  0  0  0  0  0  0  0  0
    0.1186    2.0158   -0.4674 O   0  0  0  0  0  0  0  0  0  0  0  0
  1  2  2  0
  2  3  1  0
  3  4  2  0
  4  5  1  0
  5  6  2  0
  6  7  1  0
  7  8  1  0
  8  9  1  0
  5 10  1  0
  6  1  1  0
M  END

