FC(=C)COC(=O)C=CC#N
     RDKit          3D

 11 10  0  0  0  0  0  0  0  0999 V2000
   -2.5134    1.2395    0.2494 F   0  0  0  0  0  0  0  0  0  0  0  0
   -2.1698    0.0059   -0.1939 C   0  0  0  0  0  0  0  0  0  0  0  0
   -2.4494   -1.0905    0.4970 C   0  0  0  0  0  0  0  0  0  0  0  0
   -1.4631   -0.1241   -1.4841 C   0  0  0  0  0  0  0  0  0  0  0  0
   -0.2296    0.5957   -1.4057 O   0  0  0  0  0  0  0  0  0  0  0  0
    0.7396    0.2940   -0.4874 C   0  0  0  0  0  0  0  0  0  0  0  0
    0.5018   -0.6661    0.3086 O   0  0  0  0  0  0  0  0  0  0  0  0
    1.9676    1.0524   -0.4506 C   0  0  0  0  0  0  0  0  0  0  0  0
    2.9158    0.7776    0.4276 C   0  0  0  0  0  0  0  0  0  0  0  0
    2.7087   -0.3065    1.3657 C   0  0  0  0  0  0  0  0  0  0  0  0
    2.5453   -1.1624    2.1319 N   0  0  0  0  0  0  0  0  0  0  0  0
  1  2  1  0
  2  3  2  0
  2  4  1  0
  4  5  1  0
  5  6  1  0
  6  7  2  0
  6  8  1  0
  8  9  2  3
  9 10  1  0
 10 11  3  0
M  END

