CN(C)C(=O)C1=C(N=C(S1)C2=CC=NC=C2)O
     RDKit          3D

 17 18  0  0  0  0  0  0  0  0999 V2000
   -4.8225   -0.2314   -0.0593 C   0  0  0  0  0  0  0  0  0  0  0  0
   -3.3929   -0.0314   -0.0268 N   0  0  0  0  0  0  0  0  0  0  0  0
   -2.8978    1.3048    0.2412 C   0  0  0  0  0  0  0  0  0  0  0  0
   -2.5120   -1.0957   -0.2473 C   0  0  0  0  0  0  0  0  0  0  0  0
   -2.9557   -2.2427   -0.4772 O   0  0  0  0  0  0  0  0  0  0  0  0
   -1.0459   -0.9266   -0.2214 C   0  0  0  0  0  0  0  0  0  0  0  0
   -0.0825   -1.8860   -0.4213 C   0  0  0  0  0  0  0  0  0  0  0  0
    1.1516   -1.5075   -0.3516 N   0  0  0  0  0  0  0  0  0  0  0  0
    1.4594   -0.2478   -0.0980 C   0  0  0  0  0  0  0  0  0  0  0  0
   -0.0961    0.4620    0.0547 S   0  0  0  0  0  0  0  0  0  0  0  0
    2.7817    0.3828    0.0223 C   0  0  0  0  0  0  0  0  0  0  0  0
    3.8939   -0.3811   -0.1389 C   0  0  0  0  0  0  0  0  0  0  0  0
    5.1789    0.1586   -0.0368 C   0  0  0  0  0  0  0  0  0  0  0  0
    5.2765    1.4671    0.2280 N   0  0  0  0  0  0  0  0  0  0  0  0
    4.1899    2.2235    0.3876 C   0  0  0  0  0  0  0  0  0  0  0  0
    2.9028    1.7210    0.2930 C   0  0  0  0  0  0  0  0  0  0  0  0
   -0.4309   -3.2449   -0.6947 O   0  0  0  0  0  0  0  0  0  0  0  0
  1  2  1  0
  2  3  1  0
  2  4  1  0
  4  5  2  0
  4  6  1  0
  6  7  2  0
  7  8  1  0
  8  9  2  0
  9 10  1  0
  9 11  1  0
 11 12  2  0
 12 13  1  0
 13 14  2  0
 14 15  1  0
 15 16  2  0
  7 17  1  0
 10  6  1  0
 16 11  1  0
M  END

