
     RDKit          3D

 13 14  0  0  0  0  0  0  0  0999 V2000
   -2.4339   -1.2246   -0.0338 C   0  0  0  0  0  0  0  0  0  0  0  0
   -1.6170   -0.2051   -0.1406 C   0  0  0  0  0  0  0  0  0  0  0  0
   -2.0566    1.1407    0.2594 C   0  0  0  0  0  0  0  0  0  0  0  0
   -1.1087    1.9859    0.6281 C   0  0  0  0  0  0  0  0  0  0  0  0
    0.3392    1.6730    0.6645 C   0  0  0  0  0  0  0  0  0  0  0  0
    0.6096    0.1827    0.5525 C   0  0  0  0  0  0  0  0  0  0  0  0
   -0.2342   -0.2817   -0.6385 C   0  0  0  0  0  0  0  0  0  0  0  0
    0.1238   -1.5849   -1.1635 C   0  0  0  0  0  0  0  0  0  0  0  0
    1.3234   -2.0617   -1.2511 N   0  0  0  0  0  0  0  0  0  0  0  0
    2.4527   -1.3888   -0.8525 N   0  0  0  0  0  0  0  0  0  0  0  0
    2.3031   -0.1944    0.3865 S   0  0  0  0  0  6  0  0  0  0  0  0
    2.9306   -0.6921    1.6669 O   0  0  0  0  0  0  0  0  0  0  0  0
    3.0893    1.0111   -0.0823 O   0  0  0  0  0  0  0  0  0  0  0  0
  1  2  2  0
  2  3  1  0
  3  4  2  0
  4  5  1  0
  5  6  1  0
  6  7  1  0
  7  8  1  0
  8  9  2  0
  9 10  1  0
 10 11  1  0
 11 12  2  0
 11 13  2  0
  7  2  1  0
 11  6  1  0
M  END

