
     RDKit          3D

 20 22  0  0  0  0  0  0  0  0999 V2000
    0.4550   -1.2558    2.1798 C   0  0  0  0  0  0  0  0  0  0  0  0
   -0.6925   -1.0206    1.2586 C   0  0  0  0  0  0  0  0  0  0  0  0
   -1.9451   -1.5512    1.2839 N   0  0  0  0  0  0  0  0  0  0  0  0
   -2.7167   -0.9736    0.3624 N   0  0  0  0  0  0  0  0  0  0  0  0
   -2.0061   -0.0572   -0.2888 C   0  0  0  0  0  0  0  0  0  0  0  0
   -0.7265   -0.0683    0.2444 C   0  0  0  0  0  0  0  0  0  0  0  0
    0.4159    0.7380   -0.1505 C   0  0  0  0  0  0  0  0  0  0  0  0
    0.2805    2.0139   -0.4431 N   0  0  0  0  0  0  0  0  0  0  0  0
   -0.9149    2.8538   -0.4608 C   0  0  0  0  0  0  0  0  0  0  0  0
   -1.9586    2.2387   -1.3523 C   0  0  0  0  0  0  0  0  0  0  0  0
   -2.4411    2.9525   -2.2649 O   0  0  0  0  0  0  0  0  0  0  0  0
   -2.4673    0.9013   -1.2663 N   0  0  0  0  0  0  0  0  0  0  0  0
    1.6952    0.1159   -0.1454 C   0  0  0  0  0  0  0  0  0  0  0  0
    2.8307    0.9492   -0.1792 C   0  0  0  0  0  0  0  0  0  0  0  0
    4.1024    0.4757   -0.3641 C   0  0  0  0  0  0  0  0  0  0  0  0
    4.2971   -0.8790   -0.5265 C   0  0  0  0  0  0  0  0  0  0  0  0
    3.2242   -1.6994   -0.5010 C   0  0  0  0  0  0  0  0  0  0  0  0
    1.9395   -1.2083   -0.3156 C   0  0  0  0  0  0  0  0  0  0  0  0
    0.9308   -2.1179   -0.4688 F   0  0  0  0  0  0  0  0  0  0  0  0
   -4.1106   -1.2293    0.0380 C   0  0  0  0  0  0  0  0  0  0  0  0
  1  2  1  0
  2  3  2  0
  3  4  1  0
  4  5  1  0
  5  6  2  0
  6  7  1  0
  7  8  2  0
  8  9  1  0
  9 10  1  0
 10 11  2  0
 10 12  1  0
  7 13  1  0
 13 14  2  0
 14 15  1  0
 15 16  2  0
 16 17  1  0
 17 18  2  0
 18 19  1  0
  4 20  1  0
  6  2  1  0
 12  5  1  0
 18 13  1  0
M  END

