
     RDKit          3D

 19 21  0  0  0  0  0  0  0  0999 V2000
    5.1902    1.2140    0.5283 C   0  0  0  0  0  0  0  0  0  0  0  0
    4.1880    0.2332    0.0318 C   0  0  0  0  0  0  0  0  0  0  0  0
    2.8675    0.4569    0.1445 N   0  0  0  0  0  0  0  0  0  0  0  0
    1.9380   -0.4083   -0.2935 C   0  0  0  0  0  0  0  0  0  0  0  0
    2.3716   -1.5704   -0.8811 C   0  0  0  0  0  0  0  0  0  0  0  0
    3.7378   -1.8118   -1.0027 C   0  0  0  0  0  0  0  0  0  0  0  0
    4.1289   -2.8793   -1.5426 O   0  0  0  0  0  0  0  0  0  0  0  0
    4.6180   -0.9036   -0.5431 N   0  0  0  0  0  0  0  0  0  0  0  0
    0.4993   -0.1342   -0.1553 C   0  0  0  0  0  0  0  0  0  0  0  0
   -0.0825    0.9472    0.3916 N   0  0  0  0  0  0  0  0  0  0  0  0
   -1.4264    0.8607    0.3474 C   0  0  0  0  0  0  0  0  0  0  0  0
   -1.6919   -0.3602   -0.2703 C   0  0  0  0  0  0  0  0  0  0  0  0
   -0.5062   -0.9278   -0.5571 N   0  0  0  0  0  0  0  0  0  0  0  0
   -3.0170   -0.9292   -0.5585 C   0  0  0  0  0  0  0  0  0  0  0  0
   -3.9728   -0.5377    0.5546 C   0  0  0  0  0  0  0  0  0  0  0  0
   -4.6177    0.8130    0.2920 C   0  0  0  0  0  0  0  0  0  0  0  0
   -3.7824    1.9002    0.7985 N   0  0  0  0  0  0  0  0  0  0  0  0
   -2.3645    1.8589    0.8521 C   0  0  0  0  0  0  0  0  0  0  0  0
   -1.8502    2.8481    1.4304 O   0  0  0  0  0  0  0  0  0  0  0  0
  1  2  1  0
  2  3  2  0
  3  4  1  0
  4  5  2  0
  5  6  1  0
  6  7  2  0
  6  8  1  0
  4  9  1  0
  9 10  2  0
 10 11  1  0
 11 12  2  0
 12 13  1  0
 12 14  1  0
 14 15  1  0
 15 16  1  0
 16 17  1  0
 17 18  1  0
 18 19  2  0
  8  2  1  0
 13  9  1  0
 18 11  1  0
M  END

