C1=CC=C(C(=C1)C2=NC3=C(N2)C=C(C=C3)O)O
     RDKit          3D

 17 19  0  0  0  0  0  0  0  0999 V2000
   -3.7192   -1.5085   -0.9891 C   0  0  0  0  0  0  0  0  0  0  0  0
   -4.5419   -0.8603   -0.1064 C   0  0  0  0  0  0  0  0  0  0  0  0
   -4.0314    0.0164    0.7994 C   0  0  0  0  0  0  0  0  0  0  0  0
   -2.6644    0.2416    0.8126 C   0  0  0  0  0  0  0  0  0  0  0  0
   -1.8095   -0.3852   -0.0515 C   0  0  0  0  0  0  0  0  0  0  0  0
   -2.3692   -1.2688   -0.9564 C   0  0  0  0  0  0  0  0  0  0  0  0
   -0.3604   -0.1706   -0.0648 C   0  0  0  0  0  0  0  0  0  0  0  0
    0.5199   -0.7840   -0.9183 N   0  0  0  0  0  0  0  0  0  0  0  0
    1.7595   -0.3482   -0.6430 C   0  0  0  0  0  0  0  0  0  0  0  0
    1.7048    0.5547    0.3930 C   0  0  0  0  0  0  0  0  0  0  0  0
    0.3755    0.6261    0.7101 N   0  0  0  0  0  0  0  0  0  0  0  0
    2.8407    1.1658    0.8860 C   0  0  0  0  0  0  0  0  0  0  0  0
    4.0847    0.8986    0.3614 C   0  0  0  0  0  0  0  0  0  0  0  0
    4.1475   -0.0045   -0.6762 C   0  0  0  0  0  0  0  0  0  0  0  0
    3.0116   -0.6221   -1.1767 C   0  0  0  0  0  0  0  0  0  0  0  0
    5.2454    1.4981    0.8368 O   0  0  0  0  0  0  0  0  0  0  0  0
   -2.1325    1.1502    1.7509 O   0  0  0  0  0  0  0  0  0  0  0  0
  1  2  2  0
  2  3  1  0
  3  4  2  0
  4  5  1  0
  5  6  2  0
  5  7  1  0
  7  8  2  0
  8  9  1  0
  9 10  2  0
 10 11  1  0
 10 12  1  0
 12 13  2  0
 13 14  1  0
 14 15  2  0
 13 16  1  0
  4 17  1  0
  6  1  1  0
 11  7  1  0
 15  9  1  0
M  END

