CC1NC(=N)N2C=NN(C)CC=C12
     RDKit          3D

 13 14  0  0  0  0  0  0  0  0999 V2000
   -2.7311   -1.3923    0.4572 C   0  0  0  0  0  0  0  0  0  0  0  0
   -1.9571   -0.3787   -0.3653 C   0  0  0  0  0  0  0  0  0  0  0  0
   -2.5476    0.9398   -0.2503 N   0  0  0  0  0  0  0  0  0  0  0  0
   -1.4638    1.8595   -0.2324 C   0  0  0  0  0  0  0  0  0  0  0  0
   -1.5723    3.1385   -0.4125 N   0  0  0  0  0  0  0  0  0  0  0  0
   -0.2276    1.2027    0.0099 N   0  0  0  0  0  0  0  0  0  0  0  0
    1.0673    1.7816    0.0993 C   0  0  0  0  0  0  0  0  0  0  0  0
    2.1934    1.2114    0.3527 N   0  0  0  0  0  0  0  0  0  0  0  0
    2.4330   -0.1400    0.6078 N   0  0  0  0  0  0  0  0  0  0  0  0
    3.7700   -0.6004    0.2177 C   0  0  0  0  0  0  0  0  0  0  0  0
    1.5594   -1.1089    1.1885 C   0  0  0  0  0  0  0  0  0  0  0  0
    0.1977   -1.1274    0.6471 C   0  0  0  0  0  0  0  0  0  0  0  0
   -0.5867   -0.1877    0.1450 C   0  0  0  0  0  0  0  0  0  0  0  0
  1  2  1  0
  2  3  1  0
  3  4  1  0
  4  5  2  0
  4  6  1  0
  6  7  1  0
  7  8  2  0
  8  9  1  0
  9 10  1  0
  9 11  1  0
 11 12  1  0
 12 13  2  0
 13  2  1  0
 13  6  1  0
M  END

