
     RDKit          3D

 12 13  0  0  0  0  0  0  0  0999 V2000
   -2.4258   -0.2818    0.8413 C   0  0  0  0  0  0  0  0  0  0  0  0
   -1.4315   -0.2376   -0.3245 C   0  0  0  0  0  0  0  0  0  0  0  0
   -0.8954   -1.5738   -0.6544 C   0  0  0  0  0  0  0  0  0  0  0  0
    0.5089   -1.7399   -0.6605 N   0  0  0  0  0  0  0  0  0  0  0  0
    1.4089   -0.8533   -0.4081 C   0  0  0  0  0  0  0  0  0  0  0  0
    2.8171   -1.1119   -0.4379 C   0  0  0  0  0  0  0  0  0  0  0  0
    3.6347   -0.2049   -0.1824 O   0  0  0  0  0  0  0  0  0  0  0  0
    0.9215    0.4754   -0.0782 C   0  0  0  0  0  0  0  0  0  0  0  0
    1.5659    1.6742    0.2483 C   0  0  0  0  0  0  0  0  0  0  0  0
    0.6521    2.6361    0.4725 N   0  0  0  0  0  0  0  0  0  0  0  0
   -0.5257    2.0805    0.2980 N   0  0  0  0  0  0  0  0  0  0  0  0
   -0.4049    0.7787   -0.0349 C   0  0  0  0  0  0  0  0  0  0  0  0
  1  2  1  0
  2  3  1  0
  3  4  1  0
  4  5  2  0
  5  6  1  0
  6  7  2  0
  5  8  1  0
  8  9  2  0
  9 10  1  0
 10 11  1  0
 11 12  2  0
 12  2  1  0
 12  8  1  0
M  END

