
     RDKit          3D

 13 13  0  0  0  0  0  0  0  0999 V2000
   -0.4065    1.8771   -1.6095 C   0  0  0  0  0  0  0  0  0  0  0  0
   -0.9390    0.8777   -0.6272 C   0  0  0  0  0  0  0  0  0  0  0  0
   -1.8706   -0.0908   -1.3272 C   0  0  0  0  0  0  0  0  0  0  0  0
   -1.8456   -1.3335   -0.6708 O   0  0  0  0  0  0  0  0  0  0  0  0
   -1.8710   -1.1491    0.7225 C   0  0  0  0  0  0  0  0  0  0  0  0
   -0.5628   -0.5958    1.2385 C   0  0  0  0  0  0  0  0  0  0  0  0
    0.2241   -1.6053    1.7767 O   0  0  0  0  0  0  0  0  0  0  0  0
    0.1415    0.0459    0.0264 C   0  0  0  0  0  0  0  0  0  0  0  0
    0.4703   -0.9624   -0.8446 O   0  0  0  0  0  0  0  0  0  0  0  0
    1.3255    0.8189    0.4486 C   0  0  0  0  0  0  0  0  0  0  0  0
    2.2780    0.0001    1.1305 N   0  0  0  0  0  0  0  0  0  0  0  0
    2.9842   -1.0929    0.6172 C   0  0  0  0  0  0  0  0  0  0  0  0
    2.8824   -1.5139   -0.5503 O   0  0  0  0  0  0  0  0  0  0  0  0
  1  2  1  0
  2  3  1  0
  3  4  1  0
  4  5  1  0
  5  6  1  0
  6  7  1  0
  6  8  1  0
  8  9  1  0
  8 10  1  0
 10 11  1  0
 11 12  1  0
 12 13  2  0
  8  2  1  0
M  END

