
     RDKit          3D

 13 14  0  0  0  0  0  0  0  0999 V2000
    2.9185    0.7683   -0.3305 C   0  0  0  0  0  0  0  0  0  0  0  0
    2.8147   -0.5509    0.0624 C   0  0  0  0  0  0  0  0  0  0  0  0
    1.5773   -1.1367    0.2622 C   0  0  0  0  0  0  0  0  0  0  0  0
    0.4088   -0.4054    0.0706 C   0  0  0  0  0  0  0  0  0  0  0  0
    0.5356    0.9138   -0.3228 C   0  0  0  0  0  0  0  0  0  0  0  0
    1.7652    1.5154   -0.5271 C   0  0  0  0  0  0  0  0  0  0  0  0
   -0.6965    1.6577   -0.5168 C   0  0  0  0  0  0  0  0  0  0  0  0
   -1.8631    1.0859   -0.3226 C   0  0  0  0  0  0  0  0  0  0  0  0
   -2.0635   -0.3030    0.0930 C   0  0  0  0  0  0  0  0  0  0  0  0
   -0.8465   -1.0318    0.2828 N   0  0  0  0  0  0  0  0  0  0  0  0
   -0.9365   -2.3427    0.6728 O   0  0  0  0  0  0  0  0  0  0  0  0
   -2.7880   -0.9656   -0.9162 O   0  0  0  0  0  0  0  0  0  0  0  0
   -2.8946   -0.3491    1.2321 O   0  0  0  0  0  0  0  0  0  0  0  0
  1  2  2  0
  2  3  1  0
  3  4  2  0
  4  5  1  0
  5  6  2  0
  5  7  1  0
  7  8  2  0
  8  9  1  0
  9 10  1  0
 10 11  1  0
  9 12  1  0
  9 13  1  0
  6  1  1  0
 10  4  1  0
M  END

