
     RDKit          3D

 13 12  0  0  0  0  0  0  0  0999 V2000
    4.0127    0.8727   -1.2292 C   0  0  0  0  0  0  0  0  0  0  0  0
    4.5142   -0.2093   -0.3377 C   0  0  0  0  0  0  0  0  0  0  0  0
    3.5866   -1.1989   -0.0395 O   0  0  0  0  0  0  0  0  0  0  0  0
    2.3976   -0.8925    0.6044 C   0  0  0  0  0  0  0  0  0  0  0  0
    2.2265    0.3194    0.8909 O   0  0  0  0  0  0  0  0  0  0  0  0
    1.4069   -1.9583    0.9215 C   0  0  0  0  0  0  0  0  0  0  0  0
   -0.0235   -1.2776    1.7514 S   0  0  0  0  0  0  0  0  0  0  0  0
   -0.9962   -0.1785    0.7378 C   0  0  0  0  0  0  0  0  0  0  0  0
   -1.6716   -0.8375   -0.4240 C   0  0  0  0  0  0  0  0  0  0  0  0
   -2.3971    0.1952   -1.1102 O   0  0  0  0  0  0  0  0  0  0  0  0
   -3.3891    0.9199   -0.4753 C   0  0  0  0  0  0  0  0  0  0  0  0
   -3.3206    2.2287   -0.3005 C   0  0  0  0  0  0  0  0  0  0  0  0
   -4.5842    0.1983    0.0331 C   0  0  0  0  0  0  0  0  0  0  0  0
  1  2  1  0
  2  3  1  0
  3  4  1  0
  4  5  2  0
  4  6  1  0
  6  7  1  0
  7  8  1  0
  8  9  1  0
  9 10  1  0
 10 11  1  0
 11 12  2  0
 11 13  1  0
M  END

