
     RDKit          3D

 17 16  0  0  0  0  0  0  0  0999 V2000
   -4.1466   -0.6269    0.7132 C   0  0  0  0  0  0  0  0  0  0  0  0
   -3.8943    0.8554    0.8181 C   0  0  0  0  0  0  0  0  0  0  0  0
   -3.5473    1.2332    2.1139 O   0  0  0  0  0  0  0  0  0  0  0  0
   -2.8992    1.3523   -0.2009 C   0  0  0  0  0  0  0  0  0  0  0  0
   -2.7453    2.8474    0.0214 C   0  0  0  0  0  0  0  0  0  0  0  0
   -1.5335    0.7352   -0.0211 C   0  0  0  0  0  0  0  0  0  0  0  0
   -1.5405   -0.6274   -0.1357 O   0  0  0  0  0  0  0  0  0  0  0  0
   -0.3097   -1.2411    0.0409 C   0  0  0  0  0  0  0  0  0  0  0  0
    0.7436   -0.8222   -0.9352 C   0  0  0  0  0  0  0  0  0  0  0  0
    2.0416   -1.5094   -0.6622 C   0  0  0  0  0  0  0  0  0  0  0  0
    1.8554   -3.0283   -0.7858 C   0  0  0  0  0  0  0  0  0  0  0  0
    3.0580   -3.6396   -0.4152 O   0  0  0  0  0  0  0  0  0  0  0  0
    3.0784   -1.0872   -1.4544 O   0  0  0  0  0  0  0  0  0  0  0  0
    4.2319   -0.6942   -0.8733 C   0  0  0  0  0  0  0  0  0  0  0  0
    4.2384    0.4616    0.0248 C   0  0  0  0  0  0  0  0  0  0  0  0
    3.1036    1.3301    0.3333 C   0  0  0  0  0  0  0  0  0  0  0  0
    5.3278    0.7133    0.5675 O   0  0  0  0  0  0  0  0  0  0  0  0
  1  2  1  0
  2  3  1  0
  2  4  1  0
  4  5  1  0
  4  6  1  0
  6  7  1  0
  7  8  1  0
  8  9  1  0
  9 10  1  0
 10 11  1  0
 11 12  1  0
 10 13  1  0
 13 14  1  0
 14 15  1  0
 15 16  1  0
 15 17  2  0
M  END

