
     RDKit          3D

 11 12  0  0  0  0  0  0  0  0999 V2000
    2.2907   -0.6812    0.1399 C   0  0  0  0  0  0  0  0  0  0  0  0
    1.1908    0.2950    0.0047 C   0  0  0  0  0  0  0  0  0  0  0  0
    1.3691    1.6606   -0.1301 C   0  0  0  0  0  0  0  0  0  0  0  0
    0.1225    2.1624   -0.2212 N   0  0  0  0  0  0  0  0  0  0  0  0
   -0.7745    1.1531   -0.1460 C   0  0  0  0  0  0  0  0  0  0  0  0
   -0.1182   -0.0153   -0.0050 N   0  0  0  0  0  0  0  0  0  0  0  0
   -0.8295   -1.1647    0.0906 C   0  0  0  0  0  0  0  0  0  0  0  0
   -2.2090   -1.1863    0.0490 C   0  0  0  0  0  0  0  0  0  0  0  0
   -2.8481   -0.0184   -0.0914 N   0  0  0  0  0  0  0  0  0  0  0  0
   -2.1524    1.1378   -0.1882 C   0  0  0  0  0  0  0  0  0  0  0  0
   -3.1953   -2.8329    0.1869 Br  0  0  0  0  0  0  0  0  0  0  0  0
  1  2  1  0
  2  3  2  0
  3  4  1  0
  4  5  2  0
  5  6  1  0
  6  7  1  0
  7  8  2  0
  8  9  1  0
  9 10  2  0
  8 11  1  0
  6  2  1  0
 10  5  1  0
M  END

