
     RDKit          3D

 17 16  0  0  0  0  0  0  0  0999 V2000
   -5.7571    0.2345   -0.2200 C   0  0  0  0  0  0  0  0  0  0  0  0
   -4.2678    0.4005    0.0612 C   0  0  0  0  0  0  0  0  0  0  0  0
   -3.6956    1.0905   -1.0172 O   0  0  0  0  0  0  0  0  0  0  0  0
   -3.6072   -0.9365    0.2103 C   0  0  0  0  0  0  0  0  0  0  0  0
   -3.7582   -1.7264   -1.0325 C   0  0  0  0  0  0  0  0  0  0  0  0
   -3.8881   -2.3494   -1.9914 N   0  0  0  0  0  0  0  0  0  0  0  0
   -2.1923   -0.9034    0.6746 C   0  0  0  0  0  0  0  0  0  0  0  0
   -1.2289   -0.1678   -0.1922 C   0  0  0  0  0  0  0  0  0  0  0  0
    0.1393   -0.2712    0.4645 C   0  0  0  0  0  0  0  0  0  0  0  0
    1.1925    0.4493   -0.3455 C   0  0  0  0  0  0  0  0  0  0  0  0
    2.4908    0.3452    0.2868 N   0  0  0  0  0  0  0  0  0  0  0  0
    3.6585    0.9325   -0.2635 C   0  0  0  0  0  0  0  0  0  0  0  0
    3.5959    1.5747   -1.3414 O   0  0  0  0  0  0  0  0  0  0  0  0
    4.9524    0.8021    0.4105 C   0  0  0  0  0  0  0  0  0  0  0  0
    5.9603    1.4516   -0.2990 O   0  0  0  0  0  0  0  0  0  0  0  0
    5.3059   -0.6808    0.5546 C   0  0  0  0  0  0  0  0  0  0  0  0
    5.4339   -1.2771   -0.7023 O   0  0  0  0  0  0  0  0  0  0  0  0
  1  2  1  0
  2  3  1  0
  2  4  1  0
  4  5  1  0
  5  6  3  0
  4  7  1  0
  7  8  1  0
  8  9  1  0
  9 10  1  0
 10 11  1  0
 11 12  1  0
 12 13  2  0
 12 14  1  0
 14 15  1  0
 14 16  1  0
 16 17  1  0
M  END

