
     RDKit          3D

 13 13  0  0  0  0  0  0  0  0999 V2000
    2.5976   -1.1993   -0.0568 C   0  0  0  0  0  0  0  0  0  0  0  0
    2.1204   -0.1937    0.6445 C   0  0  0  0  0  0  0  0  0  0  0  0
    0.7746    0.3300    0.2334 C   0  0  0  0  0  0  0  0  0  0  0  0
   -0.3086   -0.4591    0.3753 C   0  0  0  0  0  0  0  0  0  0  0  0
   -1.5344   -0.0265   -0.0821 C   0  0  0  0  0  0  0  0  0  0  0  0
   -1.5797    1.1821   -0.6623 N   0  0  0  0  0  0  0  0  0  0  0  0
   -0.5560    2.0111   -0.8274 C   0  0  0  0  0  0  0  0  0  0  0  0
    0.7214    1.5687   -0.3460 C   0  0  0  0  0  0  0  0  0  0  0  0
    2.2502    2.6409   -0.5050 Br  0  0  0  0  0  0  0  0  0  0  0  0
   -2.6947   -0.9134    0.1117 C   0  0  0  0  0  0  0  0  0  0  0  0
   -3.7945   -0.4987   -0.6122 F   0  0  0  0  0  0  0  0  0  0  0  0
   -2.3702   -2.2214   -0.1464 F   0  0  0  0  0  0  0  0  0  0  0  0
   -2.9848   -0.8233    1.4958 F   0  0  0  0  0  0  0  0  0  0  0  0
  1  2  2  0
  2  3  1  0
  3  4  2  0
  4  5  1  0
  5  6  2  0
  6  7  1  0
  7  8  2  0
  8  9  1  0
  5 10  1  0
 10 11  1  0
 10 12  1  0
 10 13  1  0
  8  3  1  0
M  END

