C1=CC=C(C(=C1)C2=NC(=CO2)C(=O)O)O
     RDKit          3D

 15 16  0  0  0  0  0  0  0  0999 V2000
   -2.4441    1.9017    0.0717 C   0  0  0  0  0  0  0  0  0  0  0  0
   -3.4822    0.9862    0.1000 C   0  0  0  0  0  0  0  0  0  0  0  0
   -3.2069   -0.3827    0.0783 C   0  0  0  0  0  0  0  0  0  0  0  0
   -1.9136   -0.8566    0.0289 C   0  0  0  0  0  0  0  0  0  0  0  0
   -0.8806    0.0558    0.0008 C   0  0  0  0  0  0  0  0  0  0  0  0
   -1.1609    1.3986    0.0224 C   0  0  0  0  0  0  0  0  0  0  0  0
    0.5222   -0.4067   -0.0523 C   0  0  0  0  0  0  0  0  0  0  0  0
    1.5954    0.3989   -0.0827 N   0  0  0  0  0  0  0  0  0  0  0  0
    2.7116   -0.3567   -0.1284 C   0  0  0  0  0  0  0  0  0  0  0  0
    2.2622   -1.6814   -0.1244 C   0  0  0  0  0  0  0  0  0  0  0  0
    0.9589   -1.6349   -0.0784 O   0  0  0  0  0  0  0  0  0  0  0  0
    4.0863    0.0968   -0.1725 C   0  0  0  0  0  0  0  0  0  0  0  0
    5.0193   -0.7268   -0.2124 O   0  0  0  0  0  0  0  0  0  0  0  0
    4.3539    1.4423   -0.1700 O   0  0  0  0  0  0  0  0  0  0  0  0
   -1.6500   -2.2193    0.0077 O   0  0  0  0  0  0  0  0  0  0  0  0
  1  2  2  0
  2  3  1  0
  3  4  2  0
  4  5  1  0
  5  6  2  0
  5  7  1  0
  7  8  2  0
  8  9  1  0
  9 10  2  0
 10 11  1  0
  9 12  1  0
 12 13  2  0
 12 14  1  0
  4 15  1  0
  6  1  1  0
 11  7  1  0
M  END

