
     RDKit          3D

  8  8  0  0  0  0  0  0  0  0999 V2000
    2.0745    0.8872   -0.3017 C   0  0  0  0  0  0  0  0  0  0  0  0
    1.9494   -0.4646   -0.0561 C   0  0  0  0  0  0  0  0  0  0  0  0
    0.6303   -0.7342    0.0858 N   0  0  0  0  0  0  0  0  0  0  0  0
   -0.0596    0.4186   -0.0665 C   0  0  0  0  0  0  0  0  0  0  0  0
    0.8360    1.3952   -0.3017 N   0  0  0  0  0  0  0  0  0  0  0  0
   -1.5336    0.6390    0.0008 C   0  0  0  0  0  0  0  0  0  0  0  0
   -2.2558   -0.5572    0.2620 N   0  0  0  0  0  0  0  0  0  0  0  0
    3.2532   -1.6294    0.0542 Cl  0  0  0  0  0  0  0  0  0  0  0  0
  1  2  2  0
  2  3  1  0
  3  4  1  0
  4  5  2  0
  4  6  1  0
  6  7  1  0
  2  8  1  0
  5  1  1  0
M  END

