
     RDKit          3D

 12 12  0  0  0  0  0  0  0  0999 V2000
    1.4391    0.8158   -0.0023 C   0  0  0  0  0  0  0  0  0  0  0  0
    0.0748    0.5132   -0.0170 C   0  0  0  0  0  0  0  0  0  0  0  0
   -0.3595   -0.8026    0.0389 C   0  0  0  0  0  0  0  0  0  0  0  0
    0.5950   -1.7418    0.1063 N   0  0  0  0  0  0  0  0  0  0  0  0
    1.8801   -1.4688    0.1207 N   0  0  0  0  0  0  0  0  0  0  0  0
    2.3460   -0.2126    0.0685 C   0  0  0  0  0  0  0  0  0  0  0  0
    4.2417    0.1270    0.0928 Br  0  0  0  0  0  0  0  0  0  0  0  0
   -1.8055   -1.0652    0.0205 C   0  0  0  0  0  0  0  0  0  0  0  0
   -2.0856   -2.4175    0.0816 F   0  0  0  0  0  0  0  0  0  0  0  0
   -2.4820   -0.4646    1.0521 F   0  0  0  0  0  0  0  0  0  0  0  0
   -2.4018   -0.5991   -1.1586 F   0  0  0  0  0  0  0  0  0  0  0  0
   -0.8598    1.5693   -0.0897 N   0  0  0  0  0  0  0  0  0  0  0  0
  1  2  2  0
  2  3  1  0
  3  4  2  0
  4  5  1  0
  5  6  2  0
  6  7  1  0
  3  8  1  0
  8  9  1  0
  8 10  1  0
  8 11  1  0
  2 12  1  0
  6  1  1  0
M  END

