
     RDKit          3D

 12 12  0  0  0  0  0  0  0  0999 V2000
   -2.8000   -1.6550    0.5341 C   0  0  0  0  0  0  0  0  0  0  0  0
   -2.7753   -0.2484    0.4279 O   0  0  0  0  0  0  0  0  0  0  0  0
   -1.6043    0.3961    0.0852 C   0  0  0  0  0  0  0  0  0  0  0  0
   -0.4564   -0.3307   -0.1611 C   0  0  0  0  0  0  0  0  0  0  0  0
    0.7449    0.2821   -0.5068 C   0  0  0  0  0  0  0  0  0  0  0  0
    0.8101    1.6526   -0.6106 C   0  0  0  0  0  0  0  0  0  0  0  0
   -0.3239    2.3770   -0.3675 C   0  0  0  0  0  0  0  0  0  0  0  0
   -1.5267    1.7787   -0.0237 C   0  0  0  0  0  0  0  0  0  0  0  0
    1.9951    2.2320   -0.9472 F   0  0  0  0  0  0  0  0  0  0  0  0
    1.9414   -0.5410   -0.7408 C   0  0  0  0  0  0  0  0  0  0  0  0
    2.8350   -0.5321    0.4775 C   0  0  0  0  0  0  0  0  0  0  0  0
    1.8660   -1.2631    2.0103 Br  0  0  0  0  0  0  0  0  0  0  0  0
  1  2  1  0
  2  3  1  0
  3  4  2  0
  4  5  1  0
  5  6  2  0
  6  7  1  0
  7  8  2  0
  6  9  1  0
  5 10  1  0
 10 11  1  0
 11 12  1  0
  8  3  1  0
M  END

