CC(O)C(=O)NC=CC(=O)C(C)O
     RDKit          3D

 13 12  0  0  0  0  0  0  0  0999 V2000
    4.1730   -1.1116   -0.5335 C   0  0  0  0  0  0  0  0  0  0  0  0
    3.6943    0.1771    0.1255 C   0  0  0  0  0  0  0  0  0  0  0  0
    3.8998    1.2855   -0.6592 O   0  0  0  0  0  0  0  0  0  0  0  0
    2.3175    0.0349    0.6123 C   0  0  0  0  0  0  0  0  0  0  0  0
    2.0521   -0.9576    1.3380 O   0  0  0  0  0  0  0  0  0  0  0  0
    1.2715    0.9375    0.3205 N   0  0  0  0  0  0  0  0  0  0  0  0
   -0.0390    0.7474    0.8196 C   0  0  0  0  0  0  0  0  0  0  0  0
   -1.0981    0.6016    0.0562 C   0  0  0  0  0  0  0  0  0  0  0  0
   -2.4066    0.4112    0.6441 C   0  0  0  0  0  0  0  0  0  0  0  0
   -2.5502    0.3824    1.8918 O   0  0  0  0  0  0  0  0  0  0  0  0
   -3.6413    0.2408   -0.1692 C   0  0  0  0  0  0  0  0  0  0  0  0
   -4.1672   -1.1676    0.1261 C   0  0  0  0  0  0  0  0  0  0  0  0
   -3.3442    0.2922   -1.5432 O   0  0  0  0  0  0  0  0  0  0  0  0
  1  2  1  0
  2  3  1  0
  2  4  1  0
  4  5  2  0
  4  6  1  0
  6  7  1  0
  7  8  2  3
  8  9  1  0
  9 10  2  0
  9 11  1  0
 11 12  1  0
 11 13  1  0
M  END

