
     RDKit          3D

 19 20  0  0  0  0  0  0  0  0999 V2000
   -5.1618   -0.6511   -0.3733 C   0  0  0  0  0  0  0  0  0  0  0  0
   -3.7494   -0.2050   -0.3131 C   0  0  0  0  0  0  0  0  0  0  0  0
   -2.9557   -0.7176    0.7041 C   0  0  0  0  0  0  0  0  0  0  0  0
   -1.6114   -0.3249    0.7738 C   0  0  0  0  0  0  0  0  0  0  0  0
   -1.1494    0.5463   -0.1558 C   0  0  0  0  0  0  0  0  0  0  0  0
   -1.9869    1.0440   -1.1712 C   0  0  0  0  0  0  0  0  0  0  0  0
   -3.2938    0.6698   -1.2575 C   0  0  0  0  0  0  0  0  0  0  0  0
   -0.7967   -0.9097    1.8498 C   0  0  0  0  0  0  0  0  0  0  0  0
    0.4009   -0.7088    2.0035 N   0  0  0  0  0  0  0  0  0  0  0  0
    1.2763    0.0298    1.3023 N   0  0  0  0  0  0  0  0  0  0  0  0
    1.9671   -0.6294    0.2136 C   0  0  0  0  0  0  0  0  0  0  0  0
    1.7381   -1.8371   -0.0601 O   0  0  0  0  0  0  0  0  0  0  0  0
    2.9225    0.1073   -0.5728 C   0  0  0  0  0  0  0  0  0  0  0  0
    4.1852    0.5415   -0.1675 C   0  0  0  0  0  0  0  0  0  0  0  0
    4.7035    1.2148   -1.1339 O   0  0  0  0  0  0  0  0  0  0  0  0
    3.9066    1.2776   -2.1645 C   0  0  0  0  0  0  0  0  0  0  0  0
    2.7566    0.5836   -1.8522 C   0  0  0  0  0  0  0  0  0  0  0  0
    4.7382    0.2068    1.1901 C   0  0  0  0  0  0  0  0  0  0  0  0
   -3.4939   -1.5886    1.6128 O   0  0  0  0  0  0  0  0  0  0  0  0
  1  2  1  0
  2  3  2  0
  3  4  1  0
  4  5  2  0
  5  6  1  0
  6  7  2  0
  4  8  1  0
  8  9  2  0
  9 10  1  0
 10 11  1  0
 11 12  2  0
 11 13  1  0
 13 14  2  0
 14 15  1  0
 15 16  1  0
 16 17  2  0
 14 18  1  0
  3 19  1  0
  7  2  1  0
 17 13  1  0
M  END

