
     RDKit          3D

 20 20  0  0  0  0  0  0  0  0999 V2000
   -5.4411    0.5254   -0.5072 C   0  0  0  0  0  0  0  0  0  0  0  0
   -4.0142    0.2841   -0.1370 C   0  0  0  0  0  0  0  0  0  0  0  0
   -3.1328    1.2745   -0.2284 C   0  0  0  0  0  0  0  0  0  0  0  0
   -1.7391    1.0930    0.1181 C   0  0  0  0  0  0  0  0  0  0  0  0
   -0.9260    2.0394    0.0246 O   0  0  0  0  0  0  0  0  0  0  0  0
   -1.2473   -0.1654    0.5758 N   0  0  0  0  0  0  0  0  0  0  0  0
   -2.1656   -1.2258    0.6790 C   0  0  0  0  0  0  0  0  0  0  0  0
   -1.7617   -2.3395    1.0774 O   0  0  0  0  0  0  0  0  0  0  0  0
   -3.5782   -1.0241    0.3229 C   0  0  0  0  0  0  0  0  0  0  0  0
   -4.4156   -2.0346    0.4293 C   0  0  0  0  0  0  0  0  0  0  0  0
    0.1725   -0.2957    0.9133 C   0  0  0  0  0  0  0  0  0  0  0  0
    0.8865   -0.7142   -0.3354 C   0  0  0  0  0  0  0  0  0  0  0  0
    2.2638   -0.8901   -0.2053 O   0  0  0  0  0  0  0  0  0  0  0  0
    3.1053    0.1410    0.1809 C   0  0  0  0  0  0  0  0  0  0  0  0
    2.5652    1.2504    0.4093 O   0  0  0  0  0  0  0  0  0  0  0  0
    4.5553   -0.1272    0.2964 C   0  0  0  0  0  0  0  0  0  0  0  0
    5.3433    1.0667    0.7195 C   0  0  0  0  0  0  0  0  0  0  0  0
    5.1175   -0.6596   -1.0261 C   0  0  0  0  0  0  0  0  0  0  0  0
   -3.5305    2.5906   -0.6823 C   0  0  0  0  0  0  0  0  0  0  0  0
   -3.8563    3.6501   -1.0306 N   0  0  0  0  0  0  0  0  0  0  0  0
  1  2  1  0
  2  3  2  0
  3  4  1  0
  4  5  2  0
  4  6  1  0
  6  7  1  0
  7  8  2  0
  7  9  1  0
  9 10  2  0
  6 11  1  0
 11 12  1  0
 12 13  1  0
 13 14  1  0
 14 15  2  0
 14 16  1  0
 16 17  1  0
 16 18  1  0
  3 19  1  0
 19 20  3  0
  9  2  1  0
M  END

