
     RDKit          3D

 13 13  0  0  0  0  0  0  0  0999 V2000
   -4.6117    0.7998    0.1944 C   0  0  0  0  0  0  0  0  0  0  0  0
   -3.1652    0.4182    0.2768 C   0  0  0  0  0  0  0  0  0  0  0  0
   -2.4213    0.2094   -0.8661 C   0  0  0  0  0  0  0  0  0  0  0  0
   -1.0902   -0.1417   -0.7907 C   0  0  0  0  0  0  0  0  0  0  0  0
   -0.4439   -0.2997    0.4216 C   0  0  0  0  0  0  0  0  0  0  0  0
   -1.1963   -0.0887    1.5586 C   0  0  0  0  0  0  0  0  0  0  0  0
   -2.5317    0.2637    1.4900 C   0  0  0  0  0  0  0  0  0  0  0  0
    0.8939   -0.6529    0.4719 O   0  0  0  0  0  0  0  0  0  0  0  0
    1.6020   -0.8529   -0.7257 C   0  0  0  0  0  0  0  0  0  0  0  0
    3.0400   -1.2302   -0.4532 C   0  0  0  0  0  0  0  0  0  0  0  0
    3.7594   -0.1699    0.3170 C   0  0  0  0  0  0  0  0  0  0  0  0
    3.7615    1.0652   -0.4173 N   0  0  0  0  0  0  0  0  0  0  0  0
   -3.3144    0.4277   -2.5454 Br  0  0  0  0  0  0  0  0  0  0  0  0
  1  2  1  0
  2  3  2  0
  3  4  1  0
  4  5  2  0
  5  6  1  0
  6  7  2  0
  5  8  1  0
  8  9  1  0
  9 10  1  0
 10 11  1  0
 11 12  1  0
  3 13  1  0
  7  2  1  0
M  END

