CC1=C(C=C)C(CNC=N)=CN1O
     RDKit          3D

 13 13  0  0  0  0  0  0  0  0999 V2000
   -3.1814   -0.7561    0.5240 C   0  0  0  0  0  0  0  0  0  0  0  0
   -1.7088   -0.6584    0.4686 C   0  0  0  0  0  0  0  0  0  0  0  0
   -0.9782    0.2663   -0.2290 C   0  0  0  0  0  0  0  0  0  0  0  0
   -1.3771    1.4021   -1.0600 C   0  0  0  0  0  0  0  0  0  0  0  0
   -2.5750    1.9006   -1.0586 C   0  0  0  0  0  0  0  0  0  0  0  0
    0.3646   -0.0871    0.0342 C   0  0  0  0  0  0  0  0  0  0  0  0
    1.5181    0.6532   -0.5255 C   0  0  0  0  0  0  0  0  0  0  0  0
    2.7902    0.1156   -0.1234 N   0  0  0  0  0  0  0  0  0  0  0  0
    4.0101    0.6945   -0.5617 C   0  0  0  0  0  0  0  0  0  0  0  0
    5.0947    0.0021   -0.6254 N   0  0  0  0  0  0  0  0  0  0  0  0
    0.4110   -1.1702    0.8503 C   0  0  0  0  0  0  0  0  0  0  0  0
   -0.8544   -1.5141    1.1120 N   0  0  0  0  0  0  0  0  0  0  0  0
   -1.2504   -2.5767    1.9138 O   0  0  0  0  0  0  0  0  0  0  0  0
  1  2  1  0
  2  3  2  0
  3  4  1  0
  4  5  2  0
  3  6  1  0
  6  7  1  0
  7  8  1  0
  8  9  1  0
  9 10  2  0
  6 11  2  0
 11 12  1  0
 12 13  1  0
 12  2  1  0
M  END

