
     RDKit          3D

 11 10  0  0  0  0  0  0  0  0999 V2000
   -4.9980    0.2631    1.1367 C   0  0  0  0  0  0  0  0  0  0  0  0
   -4.2878   -0.4494    0.0020 C   0  0  0  0  0  0  0  0  0  0  0  0
   -4.8147   -0.0424   -1.2220 O   0  0  0  0  0  0  0  0  0  0  0  0
   -2.8532   -0.1486   -0.0125 C   0  0  0  0  0  0  0  0  0  0  0  0
   -1.6682    0.0864   -0.0409 C   0  0  0  0  0  0  0  0  0  0  0  0
   -0.2063    0.3606   -0.0968 C   0  0  0  0  0  0  0  0  0  0  0  0
    0.4481   -0.2094    1.0582 N   0  0  0  0  0  2  0  0  0  0  0  0
    1.8670    0.0319    0.9882 C   0  0  0  0  0  0  0  0  0  0  0  0
    2.2775    0.2629   -0.4431 C   0  0  0  0  0  0  0  0  0  0  0  0
    3.7949    0.4957   -0.4086 C   0  0  0  0  0  0  0  0  0  0  0  0
    4.4476   -0.7321    0.1705 C   0  0  0  0  0  0  0  0  0  0  0  0
  1  2  1  0
  2  3  1  0
  2  4  1  0
  4  5  3  0
  5  6  1  0
  6  7  1  0
  7  8  1  0
  8  9  1  0
  9 10  1  0
 10 11  1  0
M  RAD  1   7   2
M  END

