
     RDKit          3D

 13 13  0  0  0  0  0  0  0  0999 V2000
   -2.6719   -1.4267   -0.4716 C   0  0  0  0  0  0  0  0  0  0  0  0
   -1.8651   -0.1384   -0.2168 C   0  0  0  0  0  0  0  0  0  0  0  0
   -1.8457    0.0903    1.2411 C   0  0  0  0  0  0  0  0  0  0  0  0
   -0.5823   -0.3116   -0.9293 C   0  0  0  0  0  0  0  0  0  0  0  0
    0.3755    0.7397   -0.8574 N   0  0  0  0  0  0  0  0  0  0  0  0
    1.4271    0.8132   -0.0336 C   0  0  0  0  0  0  0  0  0  0  0  0
    2.0751    2.0265   -0.2749 C   0  0  0  0  0  0  0  0  0  0  0  0
    1.3716    2.6614   -1.2667 C   0  0  0  0  0  0  0  0  0  0  0  0
    0.3723    1.8691   -1.5866 N   0  0  0  0  0  0  0  0  0  0  0  0
    2.0236   -0.3230    1.1341 S   0  0  0  0  0  6  0  0  0  0  0  0
    1.0705   -0.4730    2.2558 O   0  0  0  0  0  0  0  0  0  0  0  0
    3.3303    0.1831    1.7205 O   0  0  0  0  0  0  0  0  0  0  0  0
    2.3754   -1.8599    0.4085 N   0  0  0  0  0  0  0  0  0  0  0  0
  1  2  1  0
  2  3  1  0
  2  4  1  0
  4  5  1  0
  5  6  1  0
  6  7  2  0
  7  8  1  0
  8  9  2  0
  6 10  1  0
 10 11  2  0
 10 12  2  0
 10 13  1  0
  9  5  1  0
M  END

