
     RDKit          3D

 16 15  0  0  0  0  0  0  0  0999 V2000
   -2.5757   -1.6229   -1.4848 C   0  0  0  0  0  0  0  0  0  0  0  0
   -2.1427   -1.5847   -0.0707 C   0  0  0  0  0  0  0  0  0  0  0  0
   -3.2346   -1.3446    0.7425 O   0  0  0  0  0  0  0  0  0  0  0  0
   -1.1350   -0.4390    0.2458 C   0  0  0  0  0  0  0  0  0  0  0  0
    0.0660   -0.6053   -0.5711 C   0  0  0  0  0  0  0  0  0  0  0  0
    1.1990    0.3071   -0.4875 C   0  0  0  0  0  0  0  0  0  0  0  0
    1.2369    1.6580   -1.0894 C   0  0  0  0  0  0  0  0  0  0  0  0
    2.3198   -0.0953    0.1046 C   0  0  0  0  0  0  0  0  0  0  0  0
    2.3441   -1.4891    0.6599 C   0  0  0  0  0  0  0  0  0  0  0  0
    3.5172    0.6849    0.2516 C   0  0  0  0  0  0  0  0  0  0  0  0
    4.6566    0.1598    0.9039 N   0  0  0  0  0  0  0  0  0  0  0  0
    3.5772    1.8426   -0.1939 O   0  0  0  0  0  0  0  0  0  0  0  0
   -1.8933    0.8259    0.2565 C   0  0  0  0  0  0  0  0  0  0  0  0
   -2.5250    1.2364   -0.9706 N   0  0  0  0  0  1  0  0  0  0  0  0
   -1.3839    1.9635    1.0424 C   0  0  0  0  0  0  0  0  0  0  0  0
   -2.5091    2.7635    1.4019 O   0  0  0  0  0  0  0  0  0  0  0  0
  1  2  1  0
  2  3  1  0
  2  4  1  0
  4  5  1  0
  5  6  1  0
  6  7  1  0
  6  8  2  3
  8  9  1  0
  8 10  1  0
 10 11  1  0
 10 12  2  0
  4 13  1  0
 13 14  1  0
 13 15  1  0
 15 16  1  0
M  RAD  1  14   3
M  END

