
     RDKit          3D

 13 13  0  0  0  0  0  0  0  0999 V2000
   -1.8608   -0.0188    1.4087 C   0  0  0  0  0  0  0  0  0  0  0  0
   -1.4001   -0.1007   -0.0335 C   0  0  0  0  0  0  0  0  0  0  0  0
   -1.7296   -1.4966   -0.5564 C   0  0  0  0  0  0  0  0  0  0  0  0
   -2.0106    0.9274   -0.9114 C   0  0  0  0  0  0  0  0  0  0  0  0
    0.0724    0.0258   -0.0101 C   0  0  0  0  0  0  0  0  0  0  0  0
    0.7895   -1.0306    0.4046 N   0  0  0  0  0  0  0  0  0  0  0  0
    2.0923   -1.1087    0.5072 C   0  0  0  0  0  0  0  0  0  0  0  0
    2.7899   -2.0464    0.8866 O   0  0  0  0  0  0  0  0  0  0  0  0
    2.7520    0.0924    0.1441 N   0  0  0  0  0  0  0  0  0  0  0  0
    4.1012    0.1156    0.2960 O   0  0  0  0  0  0  0  0  0  0  0  0
    2.0130    1.1015   -0.2662 C   0  0  0  0  0  0  0  0  0  0  0  0
    2.6658    2.1887   -0.6202 N   0  0  0  0  0  0  0  0  0  0  0  0
    0.7129    1.0959   -0.3541 O   0  0  0  0  0  0  0  0  0  0  0  0
  1  2  1  0
  2  3  1  0
  2  4  1  0
  2  5  1  0
  5  6  2  0
  6  7  1  0
  7  8  2  0
  7  9  1  0
  9 10  1  0
  9 11  1  0
 11 12  2  0
 11 13  1  0
 13  5  1  0
M  END

