COC1=CC=C(C=C1)CC(=O)N/N=C\C2=CC=CN2
     RDKit          3D

 19 20  0  0  0  0  0  0  0  0999 V2000
   -5.1785   -2.7566   -0.1503 C   0  0  0  0  0  0  0  0  0  0  0  0
   -5.1062   -1.5241    0.5543 O   0  0  0  0  0  0  0  0  0  0  0  0
   -3.9775   -0.7369    0.3661 C   0  0  0  0  0  0  0  0  0  0  0  0
   -3.8292    0.4749    1.0134 C   0  0  0  0  0  0  0  0  0  0  0  0
   -2.7189    1.2579    0.8334 C   0  0  0  0  0  0  0  0  0  0  0  0
   -1.7101    0.8356   -0.0175 C   0  0  0  0  0  0  0  0  0  0  0  0
   -1.8264   -0.3690   -0.6792 C   0  0  0  0  0  0  0  0  0  0  0  0
   -2.9472   -1.1185   -0.4728 C   0  0  0  0  0  0  0  0  0  0  0  0
   -0.5194    1.6624   -0.2182 C   0  0  0  0  0  0  0  0  0  0  0  0
    0.5296    1.3131    0.7715 C   0  0  0  0  0  0  0  0  0  0  0  0
    0.2998    0.4125    1.6124 O   0  0  0  0  0  0  0  0  0  0  0  0
    1.8014    1.9875    0.7830 N   0  0  0  0  0  0  0  0  0  0  0  0
    2.7392    1.6468    1.6986 N   0  0  0  0  0  0  0  0  0  0  0  0
    3.7467    0.9201    1.5078 C   0  0  0  0  0  0  0  0  0  0  0  0
    4.0306    0.3324    0.2072 C   0  0  0  0  0  0  0  0  0  0  0  0
    3.3879    0.3918   -0.9869 C   0  0  0  0  0  0  0  0  0  0  0  0
    4.1036   -0.3701   -1.9225 C   0  0  0  0  0  0  0  0  0  0  0  0
    5.1632   -0.8584   -1.2246 C   0  0  0  0  0  0  0  0  0  0  0  0
    5.1330   -0.4505    0.0384 N   0  0  0  0  0  0  0  0  0  0  0  0
  1  2  1  0
  2  3  1  0
  3  4  2  0
  4  5  1  0
  5  6  2  0
  6  7  1  0
  7  8  2  0
  6  9  1  0
  9 10  1  0
 10 11  2  0
 10 12  1  0
 12 13  1  0
 13 14  2  0
 14 15  1  0
 15 16  2  0
 16 17  1  0
 17 18  2  0
 18 19  1  0
  8  3  1  0
 19 15  1  0
M  END

