
     RDKit          3D

 14 13  0  0  0  0  0  0  0  0999 V2000
   -1.9747   -0.5531    1.5027 C   0  0  0  0  0  0  0  0  0  0  0  0
   -1.8025   -0.3330    0.0357 C   0  0  0  0  0  0  0  0  0  0  0  0
   -0.5643    0.2988   -0.3229 N   0  0  0  0  0  0  0  0  0  0  0  0
    0.6030   -0.4447    0.0072 C   0  0  0  0  0  0  0  0  0  0  0  0
    1.7995    0.3365   -0.4265 C   0  0  0  0  0  0  0  0  0  0  0  0
    1.6741    1.4589   -0.9863 O   0  0  0  0  0  0  0  0  0  0  0  0
    3.1434   -0.1803   -0.2128 C   0  0  0  0  0  0  0  0  0  0  0  0
    4.3260    0.6156   -0.6541 C   0  0  0  0  0  0  0  0  0  0  0  0
    3.2787   -1.3487    0.3700 C   0  0  0  0  0  0  0  0  0  0  0  0
   -2.9442    0.4994   -0.4279 C   0  0  0  0  0  0  0  0  0  0  0  0
   -3.7698    0.0832   -1.3260 N   0  0  0  0  0  0  0  0  0  0  0  0
   -3.6225   -1.1576   -1.8929 O   0  0  0  0  0  0  0  0  0  0  0  0
   -3.0973    1.8049    0.1704 C   0  0  0  0  0  0  0  0  0  0  0  0
   -3.2433    2.8958    0.6630 C   0  0  0  0  0  0  0  0  0  0  0  0
  1  2  1  0
  2  3  1  0
  3  4  1  0
  4  5  1  0
  5  6  2  0
  5  7  1  0
  7  8  1  0
  7  9  2  0
  2 10  1  0
 10 11  2  3
 11 12  1  0
 10 13  1  0
 13 14  3  0
M  END

