C1=CC(=C(C=C1N)OC(F)F)O
     RDKit          3D

 12 12  0  0  0  0  0  0  0  0999 V2000
   -1.8915    0.5231    0.8470 C   0  0  0  0  0  0  0  0  0  0  0  0
   -1.5457    1.4444   -0.1319 C   0  0  0  0  0  0  0  0  0  0  0  0
   -0.3654    1.3076   -0.8129 C   0  0  0  0  0  0  0  0  0  0  0  0
    0.5179    0.2580   -0.5547 C   0  0  0  0  0  0  0  0  0  0  0  0
    0.1570   -0.6446    0.4191 C   0  0  0  0  0  0  0  0  0  0  0  0
   -1.0443   -0.5164    1.1212 C   0  0  0  0  0  0  0  0  0  0  0  0
   -1.3934   -1.4622    2.1222 N   0  0  0  0  0  0  0  0  0  0  0  0
    1.6751    0.1662   -1.2566 O   0  0  0  0  0  0  0  0  0  0  0  0
    2.6653   -0.7834   -1.1514 C   0  0  0  0  0  0  0  0  0  0  0  0
    3.9187   -0.2359   -0.8634 F   0  0  0  0  0  0  0  0  0  0  0  0
    2.8630   -1.5073   -2.3198 F   0  0  0  0  0  0  0  0  0  0  0  0
   -0.0115    2.2127   -1.7841 O   0  0  0  0  0  0  0  0  0  0  0  0
  1  2  2  0
  2  3  1  0
  3  4  2  0
  4  5  1  0
  5  6  2  0
  6  7  1  0
  4  8  1  0
  8  9  1  0
  9 10  1  0
  9 11  1  0
  3 12  1  0
  6  1  1  0
M  END

