
     RDKit          3D

 12 12  0  0  0  0  0  0  0  0999 V2000
    2.8585   -0.8202    1.3797 C   0  0  0  0  0  0  0  0  0  0  0  0
    1.9416    0.0341    0.4916 C   0  0  0  0  0  0  0  0  0  0  0  0
    2.6670    0.9035   -0.4437 C   0  0  0  0  0  0  0  0  0  0  0  0
    0.6767   -0.1047    0.6703 C   0  0  0  0  0  0  0  0  0  0  0  0
   -0.4189    0.5376    0.0122 C   0  0  0  0  0  0  0  0  0  0  0  0
   -0.1295    1.5789   -1.0315 C   0  0  0  0  0  0  0  0  0  0  0  0
   -1.4283    2.2556   -1.2724 N   0  0  0  0  0  0  0  0  0  0  0  0
   -2.5557    1.6391   -1.1562 C   0  0  0  0  0  0  0  0  0  0  0  0
   -2.6188    0.2789   -0.7914 N   0  0  0  0  0  0  0  0  0  0  0  0
   -1.3712   -0.4305   -0.6983 C   0  0  0  0  0  0  0  0  0  0  0  0
   -1.4939   -1.7516    0.0055 C   0  0  0  0  0  0  0  0  0  0  0  0
   -1.9902   -1.6924    1.3352 N   0  0  0  0  0  0  0  0  0  0  0  0
  1  2  1  0
  2  3  1  0
  2  4  2  3
  4  5  1  0
  5  6  1  0
  6  7  1  0
  7  8  2  0
  8  9  1  0
  9 10  1  0
 10 11  1  0
 11 12  1  0
 10  5  1  0
M  END

