
     RDKit          3D

 21 22  0  0  0  0  0  0  0  0999 V2000
    2.8404    2.2299   -2.1540 C   0  0  0  0  0  0  0  0  0  0  0  0
    1.6745    2.1087   -1.3655 O   0  0  0  0  0  0  0  0  0  0  0  0
    1.5558    0.9992   -0.5496 C   0  0  0  0  0  0  0  0  0  0  0  0
    0.4178    0.8799    0.2208 C   0  0  0  0  0  0  0  0  0  0  0  0
    0.2744   -0.2165    1.0430 C   0  0  0  0  0  0  0  0  0  0  0  0
    1.2887   -1.1711    1.0676 C   0  0  0  0  0  0  0  0  0  0  0  0
    2.4287   -1.0607    0.3018 C   0  0  0  0  0  0  0  0  0  0  0  0
    2.5608    0.0388   -0.5155 C   0  0  0  0  0  0  0  0  0  0  0  0
    3.4357   -2.0821    0.3755 C   0  0  0  0  0  0  0  0  0  0  0  0
    3.2976   -3.0789    1.1275 O   0  0  0  0  0  0  0  0  0  0  0  0
    4.6185   -2.0418   -0.3692 O   0  0  0  0  0  0  0  0  0  0  0  0
    1.1523   -2.3066    1.9116 N   0  0  0  0  0  0  0  0  0  0  0  0
    1.6736   -2.2308    3.0427 O   0  0  0  0  0  0  0  0  0  0  0  0
   -0.5324    1.8695    0.1327 O   0  0  0  0  0  0  0  0  0  0  0  0
   -1.7429    1.9387    0.8098 C   0  0  0  0  0  0  0  0  0  0  0  0
   -2.5714    0.7653    0.4410 C   0  0  0  0  0  0  0  0  0  0  0  0
   -3.6455    0.4561    1.2430 C   0  0  0  0  0  0  0  0  0  0  0  0
   -4.4071   -0.6317    0.8784 C   0  0  0  0  0  0  0  0  0  0  0  0
   -4.0948   -1.3835   -0.2593 C   0  0  0  0  0  0  0  0  0  0  0  0
   -3.0112   -1.0480   -1.0431 C   0  0  0  0  0  0  0  0  0  0  0  0
   -2.2428    0.0451   -0.6800 C   0  0  0  0  0  0  0  0  0  0  0  0
  1  2  1  0
  2  3  1  0
  3  4  2  0
  4  5  1  0
  5  6  2  0
  6  7  1  0
  7  8  2  0
  7  9  1  0
  9 10  2  0
  9 11  1  0
  6 12  1  0
 12 13  2  0
  4 14  1  0
 14 15  1  0
 15 16  1  0
 16 17  2  0
 17 18  1  0
 18 19  2  0
 19 20  1  0
 20 21  2  0
  8  3  1  0
 21 16  1  0
M  END

