
     RDKit          3D

 19 20  0  0  0  0  0  0  0  0999 V2000
    5.7833   -1.0922    0.3887 C   0  0  0  0  0  0  0  0  0  0  0  0
    4.4674   -0.9109   -0.1406 N   0  0  0  0  0  0  0  0  0  0  0  0
    3.6872    0.1928    0.2561 C   0  0  0  0  0  0  0  0  0  0  0  0
    4.1680    1.0336    1.0967 O   0  0  0  0  0  0  0  0  0  0  0  0
    2.3831    0.3603   -0.2774 N   0  0  0  0  0  0  0  0  0  0  0  0
    1.9764   -0.6437   -1.1997 C   0  0  0  0  0  0  0  0  0  0  0  0
    0.6870   -0.3273   -1.9140 C   0  0  0  0  0  0  0  0  0  0  0  0
   -0.4600   -0.0952   -1.0361 C   0  0  0  0  0  0  0  0  0  0  0  0
   -0.5305    0.4833    0.2209 C   0  0  0  0  0  0  0  0  0  0  0  0
    0.5408    1.0411    1.0550 C   0  0  0  0  0  0  0  0  0  0  0  0
    1.6945    1.5396    0.2234 C   0  0  0  0  0  0  0  0  0  0  0  0
   -1.7599    0.5543    0.7792 N   0  0  0  0  0  0  0  0  0  0  0  0
   -2.8710    0.1014    0.1809 C   0  0  0  0  0  0  0  0  0  0  0  0
   -2.7965   -0.4662   -1.0545 N   0  0  0  0  0  0  0  0  0  0  0  0
   -1.6090   -0.5646   -1.6573 C   0  0  0  0  0  0  0  0  0  0  0  0
   -1.5585   -1.0916   -2.7980 O   0  0  0  0  0  0  0  0  0  0  0  0
   -4.1141    0.2061    0.8149 N   0  0  0  0  0  0  0  0  0  0  0  0
   -5.3606   -0.2598    0.2337 C   0  0  0  0  0  0  0  0  0  0  0  0
   -4.1880    0.8113    2.1289 C   0  0  0  0  0  0  0  0  0  0  0  0
  1  2  1  0
  2  3  1  0
  3  4  2  0
  3  5  1  0
  5  6  1  0
  6  7  1  0
  7  8  1  0
  8  9  2  0
  9 10  1  0
 10 11  1  0
  9 12  1  0
 12 13  2  0
 13 14  1  0
 14 15  1  0
 15 16  2  0
 13 17  1  0
 17 18  1  0
 17 19  1  0
 11  5  1  0
 15  8  1  0
M  END

