CC([NH2+]CC([O-])=O)C=CC(O)C#N
     RDKit          3D

 13 12  0  0  0  0  0  0  0  0999 V2000
   -0.5847   -2.3178    0.9313 C   0  0  0  0  0  0  0  0  0  0  0  0
   -0.5393   -1.1782   -0.0820 C   0  0  0  0  0  0  0  0  0  0  0  0
   -1.4511   -0.1702    0.3451 N   0  0  0  0  0  4  0  0  0  0  0  0
   -2.1183    0.4896   -0.7575 C   0  0  0  0  0  0  0  0  0  0  0  0
   -2.4998    1.8709   -0.3476 C   0  0  0  0  0  0  0  0  0  0  0  0
   -3.1605    2.6680   -1.2903 O   0  0  0  0  0  1  0  0  0  0  0  0
   -2.2523    2.3345    0.7953 O   0  0  0  0  0  0  0  0  0  0  0  0
    0.8566   -0.7347   -0.1806 C   0  0  0  0  0  0  0  0  0  0  0  0
    1.2453    0.5182   -0.2886 C   0  0  0  0  0  0  0  0  0  0  0  0
    2.6747    0.9126   -0.3852 C   0  0  0  0  0  0  0  0  0  0  0  0
    2.8734    2.0627    0.3650 O   0  0  0  0  0  0  0  0  0  0  0  0
    3.5031   -0.2002    0.0667 C   0  0  0  0  0  0  0  0  0  0  0  0
    4.1594   -1.0799    0.4222 N   0  0  0  0  0  0  0  0  0  0  0  0
  1  2  1  0
  2  3  1  0
  3  4  1  0
  4  5  1  0
  5  6  1  0
  5  7  2  0
  2  8  1  0
  8  9  2  3
  9 10  1  0
 10 11  1  0
 10 12  1  0
 12 13  3  0
M  CHG  2   3   1   6  -1
M  END

