
     RDKit          3D

 15 16  0  0  0  0  0  0  0  0999 V2000
    2.8047    1.2693    1.0059 C   0  0  0  0  0  0  0  0  0  0  0  0
    2.6781   -0.0331    0.2873 C   0  0  0  0  0  0  0  0  0  0  0  0
    3.2240   -1.0265    1.1034 O   0  0  0  0  0  0  0  0  0  0  0  0
    3.4453    0.0609   -0.9706 C   0  0  0  0  0  0  0  0  0  0  0  0
    4.0598    0.1463   -2.0050 C   0  0  0  0  0  0  0  0  0  0  0  0
    1.2560   -0.3912    0.0023 C   0  0  0  0  0  0  0  0  0  0  0  0
    0.2414    0.3740    0.3557 C   0  0  0  0  0  0  0  0  0  0  0  0
   -1.1774    0.0843    0.1082 C   0  0  0  0  0  0  0  0  0  0  0  0
   -1.7255    1.0317   -0.9650 C   0  0  0  0  0  0  0  0  0  0  0  0
   -3.0853    1.4335   -0.4698 C   0  0  0  0  0  0  0  0  0  0  0  0
   -3.3644    0.6532    0.7129 N   0  0  0  0  0  4  0  0  0  0  0  0
   -2.0501    0.4689    1.2893 C   0  0  0  0  0  0  0  0  0  0  0  0
   -1.4314   -1.3201   -0.3397 C   0  0  0  0  0  0  0  0  0  0  0  0
   -0.2823   -2.2488    0.0001 C   0  0  0  0  0  0  0  0  0  0  0  0
    0.9396   -1.6608   -0.7103 C   0  0  0  0  0  0  0  0  0  0  0  0
  1  2  1  0
  2  3  1  0
  2  4  1  0
  4  5  3  0
  2  6  1  0
  6  7  2  0
  7  8  1  0
  8  9  1  0
  9 10  1  0
 10 11  1  0
 11 12  1  0
  8 13  1  0
 13 14  1  0
 14 15  1  0
 15  6  1  0
 12  8  1  0
M  CHG  1  11   1
M  END

